gem5 Simulator System.  http://gem5.org
gem5 is copyrighted software; use the --copyright option for details.

gem5 compiled Jan 30 2015 13:54:16
gem5 started Jan 30 2015 16:12:12
gem5 executing on iris-3
command line: /research/ljindal/gem5.oct18.new/build/ARM/gem5.opt --debug-flags=EnergyCtrl,DVFS /research/ljindal/gem5.oct18.new/configs/example/1.4GHzfs.py.multicore --machine-type VExpress_EMM --kernel vmlinux.ondemand95.real --num-cpus=1 --dtb-filename vexpress-v2p-ca15-tc1-gem5_dvfs_1cpus.dtb --caches --l1d_size=32kB --l1i_size=32kB --l1i_assoc=2 --l1d_assoc=2 --l2cache --l2_size=1MB --l2_assoc=16 --disk-image=ARMv7a-ICS-Android.SMP.Asimbench-v3.img
Global frequency set at 1000000000000 ticks per second
info: kernel located at: /research/ljindal/gem5.oct18.new/binaries/vmlinux.ondemand95.real
Listening for system connection on port 5900
Listening for system connection on port 3456
      0: system.cpu.isa: ISA system set to: 0x5108680 0x5108680
0: system.remote_gdb.listener: listening for remote gdb #0 on port 7000
info: Using bootloader at address 0x10
info: Using kernel entry physical address at 0x80008000
info: Loading DTB file: /research/ljindal/gem5.oct18.new/binaries/vexpress-v2p-ca15-tc1-gem5_dvfs_1cpus.dtb at address 0x88000000
**** REAL SIMULATION ****
info: Entering event queue @ 0.  Starting simulation...
warn: Not doing anything for miscreg ACTLR
warn: Not doing anything for write of miscreg ACTLR
warn: The clidr register always reports 0 caches.
warn: clidr LoUIS field of 0b001 to match current ARM implementations.
warn: The csselr register isn't implemented.
warn: 	instruction 'mcr dccmvau' unimplemented
warn: 	instruction 'mcr icimvau' unimplemented
warn: 	instruction 'mcr bpiallis' unimplemented
warn: 	instruction 'mcr icialluis' unimplemented
warn: 	instruction 'mcr dccimvac' unimplemented
warn: Tried to read RealView I/O at offset 0x60 that doesn't exist
warn: Tried to write RVIO at offset 0xa8 (data 0) that doesn't exist
warn: Tried to write RVIO at offset 0xa8 (data 0) that doesn't exist
warn: Tried to write RVIO at offset 0xa8 (data 0) that doesn't exist
warn: Tried to write RVIO at offset 0xa8 (data 0) that doesn't exist
warn: Tried to write RVIO at offset 0xa8 (data 0) that doesn't exist
warn: Tried to write RVIO at offset 0xa8 (data 0) that doesn't exist
warn: Tried to write RVIO at offset 0xa8 (data 0) that doesn't exist
warn: Tried to write RVIO at offset 0xa8 (data 0) that doesn't exist
warn: Tried to write RVIO at offset 0xa8 (data 0) that doesn't exist
info: Read CNTFREQ_EL0 frequency
info: trap check M:0 N:0 1:0 2:0 hdcr 0, hcptr 3fff, hstr 0
info: trap check M:0 N:0 1:0 2:0 hdcr 0, hcptr 3fff, hstr 0
info: trap check M:0 N:0 1:0 2:0 hdcr 0, hcptr 3fff, hstr 0
info: trap check M:0 N:0 1:0 2:0 hdcr 0, hcptr 3fff, hstr 0
warn: Not doing anything for read to miscreg pmcr
warn: Not doing anything for write to miscreg pmcr
warn: Tried to write RVIO at offset 0xa8 (data 0) that doesn't exist
warn: SCReg: Writing 0x8416740 to dcc0:site1:pos0:fn1:dev5
warn: Tried to write RVIO at offset 0xa8 (data 0) that doesn't exist
warn: Tried to write RVIO at offset 0xa8 (data 0) that doesn't exist
warn: Tried to write RVIO at offset 0xa8 (data 0) that doesn't exist
warn: Tried to write RVIO at offset 0xa8 (data 0) that doesn't exist
369247054932: system.realview.energy_ctrl: dvfs handler enabled
369247062072: system.realview.energy_ctrl: reading number of domains 1
369247089918: system.realview.energy_ctrl: writing domain id index:0
369247091346: system.realview.energy_ctrl: reading domain id at index 0 as 0
369247136328: system.realview.energy_ctrl: writing domain id:0
369247137756: system.realview.energy_ctrl: reading domain id:0
369247142040: system.realview.energy_ctrl: reading num of perf level:13
369247388370: system.realview.energy_ctrl: writing perf level to read opp at: 0
369247389798: system.realview.energy_ctrl: reading freq 1400560 KHz at perf level: 0
369247394796: system.realview.energy_ctrl: reading voltage 1000000 u-volt at perf level: 0
369247407648: system.realview.energy_ctrl: writing perf level to read opp at: 1
369247409076: system.realview.energy_ctrl: reading freq 1300390 KHz at perf level: 1
369247414074: system.dvfs_handler: DVFS: Request for perf-level 1 for single-point voltage domain system.cpu_voltage_domain.  Returning voltage at level 0: 1.00 V
369247414074: system.realview.energy_ctrl: reading voltage 1000000 u-volt at perf level: 1
369247426926: system.realview.energy_ctrl: writing perf level to read opp at: 2
369247428354: system.realview.energy_ctrl: reading freq 1200480 KHz at perf level: 2
369247433352: system.dvfs_handler: DVFS: Request for perf-level 2 for single-point voltage domain system.cpu_voltage_domain.  Returning voltage at level 0: 1.00 V
369247433352: system.realview.energy_ctrl: reading voltage 1000000 u-volt at perf level: 2
369247446204: system.realview.energy_ctrl: writing perf level to read opp at: 3
369247447632: system.realview.energy_ctrl: reading freq 1100110 KHz at perf level: 3
369247452630: system.dvfs_handler: DVFS: Request for perf-level 3 for single-point voltage domain system.cpu_voltage_domain.  Returning voltage at level 0: 1.00 V
369247452630: system.realview.energy_ctrl: reading voltage 1000000 u-volt at perf level: 3
369247465482: system.realview.energy_ctrl: writing perf level to read opp at: 4
369247466910: system.realview.energy_ctrl: reading freq 1000000 KHz at perf level: 4
369247471908: system.dvfs_handler: DVFS: Request for perf-level 4 for single-point voltage domain system.cpu_voltage_domain.  Returning voltage at level 0: 1.00 V
369247471908: system.realview.energy_ctrl: reading voltage 1000000 u-volt at perf level: 4
369247484760: system.realview.energy_ctrl: writing perf level to read opp at: 5
369247486188: system.realview.energy_ctrl: reading freq 900090 KHz at perf level: 5
369247491186: system.dvfs_handler: DVFS: Request for perf-level 5 for single-point voltage domain system.cpu_voltage_domain.  Returning voltage at level 0: 1.00 V
369247491186: system.realview.energy_ctrl: reading voltage 1000000 u-volt at perf level: 5
369247504038: system.realview.energy_ctrl: writing perf level to read opp at: 6
369247505466: system.realview.energy_ctrl: reading freq 800000 KHz at perf level: 6
369247510464: system.dvfs_handler: DVFS: Request for perf-level 6 for single-point voltage domain system.cpu_voltage_domain.  Returning voltage at level 0: 1.00 V
369247510464: system.realview.energy_ctrl: reading voltage 1000000 u-volt at perf level: 6
369247523316: system.realview.energy_ctrl: writing perf level to read opp at: 7
369247524744: system.realview.energy_ctrl: reading freq 699790 KHz at perf level: 7
369247529742: system.dvfs_handler: DVFS: Request for perf-level 7 for single-point voltage domain system.cpu_voltage_domain.  Returning voltage at level 0: 1.00 V
369247529742: system.realview.energy_ctrl: reading voltage 1000000 u-volt at perf level: 7
369247542594: system.realview.energy_ctrl: writing perf level to read opp at: 8
369247544022: system.realview.energy_ctrl: reading freq 599880 KHz at perf level: 8
369247549020: system.dvfs_handler: DVFS: Request for perf-level 8 for single-point voltage domain system.cpu_voltage_domain.  Returning voltage at level 0: 1.00 V
369247549020: system.realview.energy_ctrl: reading voltage 1000000 u-volt at perf level: 8
369247561872: system.realview.energy_ctrl: writing perf level to read opp at: 9
369247563300: system.realview.energy_ctrl: reading freq 500000 KHz at perf level: 9
369247568298: system.dvfs_handler: DVFS: Request for perf-level 9 for single-point voltage domain system.cpu_voltage_domain.  Returning voltage at level 0: 1.00 V
369247568298: system.realview.energy_ctrl: reading voltage 1000000 u-volt at perf level: 9
369247581150: system.realview.energy_ctrl: writing perf level to read opp at: 10
369247582578: system.realview.energy_ctrl: reading freq 400000 KHz at perf level: 10
369247587576: system.dvfs_handler: DVFS: Request for perf-level 10 for single-point voltage domain system.cpu_voltage_domain.  Returning voltage at level 0: 1.00 V
369247587576: system.realview.energy_ctrl: reading voltage 1000000 u-volt at perf level: 10
369247600428: system.realview.energy_ctrl: writing perf level to read opp at: 11
369247601856: system.realview.energy_ctrl: reading freq 300030 KHz at perf level: 11
369247606854: system.dvfs_handler: DVFS: Request for perf-level 11 for single-point voltage domain system.cpu_voltage_domain.  Returning voltage at level 0: 1.00 V
369247606854: system.realview.energy_ctrl: reading voltage 1000000 u-volt at perf level: 11
369247619706: system.realview.energy_ctrl: writing perf level to read opp at: 12
369247621134: system.realview.energy_ctrl: reading freq 200000 KHz at perf level: 12
369247626132: system.dvfs_handler: DVFS: Request for perf-level 12 for single-point voltage domain system.cpu_voltage_domain.  Returning voltage at level 0: 1.00 V
369247626132: system.realview.energy_ctrl: reading voltage 1000000 u-volt at perf level: 12
369321029616: system.realview.energy_ctrl: reading dvfs handler trans latency 100000 ns
369321151710: system.realview.energy_ctrl: writing domain id:0
369321153138: system.realview.energy_ctrl: reading domain 0 perf level: 0
369326204688: system.realview.energy_ctrl: writing domain id:0
369326206116: system.realview.energy_ctrl: reading domain 0 perf level: 0
460012469238: system.realview.energy_ctrl: writing domain id:0
460012470666: system.realview.energy_ctrl: reading domain 0 perf level: 0
460013174670: system.realview.energy_ctrl: writing domain id:0
460013176098: system.realview.energy_ctrl: reading domain 0 perf level: 0
460013381016: system.realview.energy_ctrl: writing domain id:0
460013462412: system.dvfs_handler: DVFS: setPerfLevel domain 0 -> 12
460013462412: system.dvfs_handler: DVFS: Update for perf event scheduled for 460113462412
460013462412: system.realview.energy_ctrl: writing domain 0 perf level: 12
460013464554: system.realview.energy_ctrl: reading ack:0
460015465182: system.realview.energy_ctrl: reading ack:0
460017495798: system.realview.energy_ctrl: reading ack:0
460019510706: system.realview.energy_ctrl: reading ack:0
460021509906: system.realview.energy_ctrl: reading ack:0
460023524814: system.realview.energy_ctrl: reading ack:0
460025524014: system.realview.energy_ctrl: reading ack:0
460027538922: system.realview.energy_ctrl: reading ack:0
460029538122: system.realview.energy_ctrl: reading ack:0
460031553030: system.realview.energy_ctrl: reading ack:0
460033552230: system.realview.energy_ctrl: reading ack:0
460035567138: system.realview.energy_ctrl: reading ack:0
460037597754: system.realview.energy_ctrl: reading ack:0
460039628370: system.realview.energy_ctrl: reading ack:0
460041643278: system.realview.energy_ctrl: reading ack:0
460043642478: system.realview.energy_ctrl: reading ack:0
460045657386: system.realview.energy_ctrl: reading ack:0
460047656586: system.realview.energy_ctrl: reading ack:0
460049671494: system.realview.energy_ctrl: reading ack:0
460051670694: system.realview.energy_ctrl: reading ack:0
460053685602: system.realview.energy_ctrl: reading ack:0
460055684802: system.realview.energy_ctrl: reading ack:0
460057699710: system.realview.energy_ctrl: reading ack:0
460059730326: system.realview.energy_ctrl: reading ack:0
460061760942: system.realview.energy_ctrl: reading ack:0
460063775850: system.realview.energy_ctrl: reading ack:0
460065775050: system.realview.energy_ctrl: reading ack:0
460067789958: system.realview.energy_ctrl: reading ack:0
460069789158: system.realview.energy_ctrl: reading ack:0
460071804066: system.realview.energy_ctrl: reading ack:0
460073803266: system.realview.energy_ctrl: reading ack:0
460075818174: system.realview.energy_ctrl: reading ack:0
460077817374: system.realview.energy_ctrl: reading ack:0
460079832282: system.realview.energy_ctrl: reading ack:0
460081815774: system.realview.energy_ctrl: reading ack:0
460083814974: system.realview.energy_ctrl: reading ack:0
460085829882: system.realview.energy_ctrl: reading ack:0
460087829082: system.realview.energy_ctrl: reading ack:0
460089843990: system.realview.energy_ctrl: reading ack:0
460091843190: system.realview.energy_ctrl: reading ack:0
460093858098: system.realview.energy_ctrl: reading ack:0
460095857298: system.realview.energy_ctrl: reading ack:0
460097872206: system.realview.energy_ctrl: reading ack:0
460099871406: system.realview.energy_ctrl: reading ack:0
460101886314: system.realview.energy_ctrl: reading ack:0
460103916930: system.realview.energy_ctrl: reading ack:0
460105947546: system.realview.energy_ctrl: reading ack:0
460107962454: system.realview.energy_ctrl: reading ack:0
460109961654: system.realview.energy_ctrl: reading ack:0
460111976562: system.realview.energy_ctrl: reading ack:0
460114083110: system.realview.energy_ctrl: reading ack:1
460114583110: system.realview.energy_ctrl: writing domain id:0
460114593110: system.realview.energy_ctrl: reading domain 0 perf level: 12
680118803110: system.realview.energy_ctrl: writing domain id:0
680118813110: system.realview.energy_ctrl: reading domain 0 perf level: 12
680126443110: system.realview.energy_ctrl: writing domain id:0
680126453110: system.realview.energy_ctrl: reading domain 0 perf level: 12
680127888110: system.realview.energy_ctrl: writing domain id:0
680128418110: system.dvfs_handler: DVFS: setPerfLevel domain 0 -> 11
680128418110: system.dvfs_handler: DVFS: Update for perf event scheduled for 680228418110
680128418110: system.realview.energy_ctrl: writing domain 0 perf level: 11
680128433110: system.realview.energy_ctrl: reading ack:0
680130673110: system.realview.energy_ctrl: reading ack:0
680132903110: system.realview.energy_ctrl: reading ack:0
680135133110: system.realview.energy_ctrl: reading ack:0
680137363110: system.realview.energy_ctrl: reading ack:0
680139593110: system.realview.energy_ctrl: reading ack:0
680141933110: system.realview.energy_ctrl: reading ack:0
680144163110: system.realview.energy_ctrl: reading ack:0
680146503110: system.realview.energy_ctrl: reading ack:0
680148843110: system.realview.energy_ctrl: reading ack:0
680151073110: system.realview.energy_ctrl: reading ack:0
680153413110: system.realview.energy_ctrl: reading ack:0
680155643110: system.realview.energy_ctrl: reading ack:0
680157983110: system.realview.energy_ctrl: reading ack:0
680160213110: system.realview.energy_ctrl: reading ack:0
680162553110: system.realview.energy_ctrl: reading ack:0
680164783110: system.realview.energy_ctrl: reading ack:0
680167123110: system.realview.energy_ctrl: reading ack:0
680169353110: system.realview.energy_ctrl: reading ack:0
680171693110: system.realview.energy_ctrl: reading ack:0
680173923110: system.realview.energy_ctrl: reading ack:0
680176263110: system.realview.energy_ctrl: reading ack:0
680178493110: system.realview.energy_ctrl: reading ack:0
680180833110: system.realview.energy_ctrl: reading ack:0
680183063110: system.realview.energy_ctrl: reading ack:0
680185403110: system.realview.energy_ctrl: reading ack:0
680187633110: system.realview.energy_ctrl: reading ack:0
680189973110: system.realview.energy_ctrl: reading ack:0
680192203110: system.realview.energy_ctrl: reading ack:0
680194543110: system.realview.energy_ctrl: reading ack:0
680196773110: system.realview.energy_ctrl: reading ack:0
680199113110: system.realview.energy_ctrl: reading ack:0
680201343110: system.realview.energy_ctrl: reading ack:0
680203683110: system.realview.energy_ctrl: reading ack:0
680206023110: system.realview.energy_ctrl: reading ack:0
680208253110: system.realview.energy_ctrl: reading ack:0
680210593110: system.realview.energy_ctrl: reading ack:0
680212823110: system.realview.energy_ctrl: reading ack:0
680215163110: system.realview.energy_ctrl: reading ack:0
680217393110: system.realview.energy_ctrl: reading ack:0
680219733110: system.realview.energy_ctrl: reading ack:0
680221963110: system.realview.energy_ctrl: reading ack:0
680224303110: system.realview.energy_ctrl: reading ack:0
680226533110: system.realview.energy_ctrl: reading ack:0
680228794739: system.realview.energy_ctrl: reading ack:1
680229128039: system.realview.energy_ctrl: writing domain id:0
680229134705: system.realview.energy_ctrl: reading domain 0 perf level: 11
890074328087: system.realview.energy_ctrl: writing domain id:0
890074334753: system.realview.energy_ctrl: reading domain 0 perf level: 11
890077567763: system.realview.energy_ctrl: writing domain id:0
890077574429: system.realview.energy_ctrl: reading domain 0 perf level: 11
890078531000: system.realview.energy_ctrl: writing domain id:0
890078910962: system.dvfs_handler: DVFS: setPerfLevel domain 0 -> 12
890078910962: system.dvfs_handler: DVFS: Update for perf event scheduled for 890178910962
890078910962: system.realview.energy_ctrl: writing domain 0 perf level: 12
890078920961: system.realview.energy_ctrl: reading ack:0
890081147405: system.realview.energy_ctrl: reading ack:0
890083293857: system.realview.energy_ctrl: reading ack:0
890085440309: system.realview.energy_ctrl: reading ack:0
890087586761: system.realview.energy_ctrl: reading ack:0
890089733213: system.realview.energy_ctrl: reading ack:0
890091879665: system.realview.energy_ctrl: reading ack:0
890094099443: system.realview.energy_ctrl: reading ack:0
890096245895: system.realview.energy_ctrl: reading ack:0
890098392347: system.realview.energy_ctrl: reading ack:0
890100538799: system.realview.energy_ctrl: reading ack:0
890102685251: system.realview.energy_ctrl: reading ack:0
890104831703: system.realview.energy_ctrl: reading ack:0
890106978155: system.realview.energy_ctrl: reading ack:0
890109124607: system.realview.energy_ctrl: reading ack:0
890111271059: system.realview.energy_ctrl: reading ack:0
890113490837: system.realview.energy_ctrl: reading ack:0
890115637289: system.realview.energy_ctrl: reading ack:0
890117783741: system.realview.energy_ctrl: reading ack:0
890119930193: system.realview.energy_ctrl: reading ack:0
890122076645: system.realview.energy_ctrl: reading ack:0
890124223097: system.realview.energy_ctrl: reading ack:0
890126369549: system.realview.energy_ctrl: reading ack:0
890128516001: system.realview.energy_ctrl: reading ack:0
890130662453: system.realview.energy_ctrl: reading ack:0
890132882231: system.realview.energy_ctrl: reading ack:0
890135028683: system.realview.energy_ctrl: reading ack:0
890137175135: system.realview.energy_ctrl: reading ack:0
890139321587: system.realview.energy_ctrl: reading ack:0
890141468039: system.realview.energy_ctrl: reading ack:0
890143614491: system.realview.energy_ctrl: reading ack:0
890145760943: system.realview.energy_ctrl: reading ack:0
890147907395: system.realview.energy_ctrl: reading ack:0
890150127173: system.realview.energy_ctrl: reading ack:0
890152273625: system.realview.energy_ctrl: reading ack:0
890154420077: system.realview.energy_ctrl: reading ack:0
890156566529: system.realview.energy_ctrl: reading ack:0
890158712981: system.realview.energy_ctrl: reading ack:0
890160859433: system.realview.energy_ctrl: reading ack:0
890163005885: system.realview.energy_ctrl: reading ack:0
890165152337: system.realview.energy_ctrl: reading ack:0
890167298789: system.realview.energy_ctrl: reading ack:0
890169518567: system.realview.energy_ctrl: reading ack:0
890171665019: system.realview.energy_ctrl: reading ack:0
890173811471: system.realview.energy_ctrl: reading ack:0
890175957923: system.realview.energy_ctrl: reading ack:0
890178104375: system.realview.energy_ctrl: reading ack:0
890180259294: system.realview.energy_ctrl: reading ack:1
890180759294: system.realview.energy_ctrl: writing domain id:0
890180769294: system.realview.energy_ctrl: reading domain 0 perf level: 12
2790291559294: system.realview.energy_ctrl: writing domain id:0
2790291569294: system.realview.energy_ctrl: reading domain 0 perf level: 12
2790299209294: system.realview.energy_ctrl: writing domain id:0
2790299219294: system.realview.energy_ctrl: reading domain 0 perf level: 12
2790300654294: system.realview.energy_ctrl: writing domain id:0
2790301104294: system.dvfs_handler: DVFS: setPerfLevel domain 0 -> 9
2790301104294: system.dvfs_handler: DVFS: Update for perf event scheduled for 2790401104294
2790301104294: system.realview.energy_ctrl: writing domain 0 perf level: 9
2790301119294: system.realview.energy_ctrl: reading ack:0
2790303359294: system.realview.energy_ctrl: reading ack:0
2790305589294: system.realview.energy_ctrl: reading ack:0
2790307819294: system.realview.energy_ctrl: reading ack:0
2790310049294: system.realview.energy_ctrl: reading ack:0
2790312279294: system.realview.energy_ctrl: reading ack:0
2790314619294: system.realview.energy_ctrl: reading ack:0
2790316849294: system.realview.energy_ctrl: reading ack:0
2790319189294: system.realview.energy_ctrl: reading ack:0
2790321419294: system.realview.energy_ctrl: reading ack:0
2790323759294: system.realview.energy_ctrl: reading ack:0
2790325989294: system.realview.energy_ctrl: reading ack:0
2790328329294: system.realview.energy_ctrl: reading ack:0
2790330559294: system.realview.energy_ctrl: reading ack:0
2790332899294: system.realview.energy_ctrl: reading ack:0
2790335129294: system.realview.energy_ctrl: reading ack:0
2790337469294: system.realview.energy_ctrl: reading ack:0
2790339699294: system.realview.energy_ctrl: reading ack:0
2790342039294: system.realview.energy_ctrl: reading ack:0
2790344269294: system.realview.energy_ctrl: reading ack:0
2790346609294: system.realview.energy_ctrl: reading ack:0
2790348839294: system.realview.energy_ctrl: reading ack:0
2790351179294: system.realview.energy_ctrl: reading ack:0
2790353409294: system.realview.energy_ctrl: reading ack:0
2790355749294: system.realview.energy_ctrl: reading ack:0
2790357979294: system.realview.energy_ctrl: reading ack:0
2790360319294: system.realview.energy_ctrl: reading ack:0
2790362549294: system.realview.energy_ctrl: reading ack:0
2790364889294: system.realview.energy_ctrl: reading ack:0
2790367119294: system.realview.energy_ctrl: reading ack:0
2790369459294: system.realview.energy_ctrl: reading ack:0
2790371689294: system.realview.energy_ctrl: reading ack:0
2790374029294: system.realview.energy_ctrl: reading ack:0
2790376369294: system.realview.energy_ctrl: reading ack:0
2790378599294: system.realview.energy_ctrl: reading ack:0
2790380939294: system.realview.energy_ctrl: reading ack:0
2790383169294: system.realview.energy_ctrl: reading ack:0
2790385509294: system.realview.energy_ctrl: reading ack:0
2790387739294: system.realview.energy_ctrl: reading ack:0
2790390079294: system.realview.energy_ctrl: reading ack:0
2790392309294: system.realview.energy_ctrl: reading ack:0
2790394649294: system.realview.energy_ctrl: reading ack:0
2790396879294: system.realview.energy_ctrl: reading ack:0
2790399219294: system.realview.energy_ctrl: reading ack:0
2790401418294: system.realview.energy_ctrl: reading ack:1
2790401618294: system.realview.energy_ctrl: writing domain id:0
2790401622294: system.realview.energy_ctrl: reading domain 0 perf level: 9
warn: Tried to write RVIO at offset 0xa8 (data 0) that doesn't exist
warn: Tried to write RVIO at offset 0xa8 (data 0) that doesn't exist
2959997480294: system.realview.energy_ctrl: writing domain id:0
2959997484294: system.realview.energy_ctrl: reading domain 0 perf level: 9
3059999702294: system.realview.energy_ctrl: writing domain id:0
3059999706294: system.realview.energy_ctrl: reading domain 0 perf level: 9
3060001646294: system.realview.energy_ctrl: writing domain id:0
3060001650294: system.realview.energy_ctrl: reading domain 0 perf level: 9
3060002224294: system.realview.energy_ctrl: writing domain id:0
3060002452294: system.dvfs_handler: DVFS: setPerfLevel domain 0 -> 12
3060002452294: system.dvfs_handler: DVFS: Update for perf event scheduled for 3060102452294
3060002452294: system.realview.energy_ctrl: writing domain 0 perf level: 12
3060002458294: system.realview.energy_ctrl: reading ack:0
3060004542294: system.realview.energy_ctrl: reading ack:0
3060006622294: system.realview.energy_ctrl: reading ack:0
3060008702294: system.realview.energy_ctrl: reading ack:0
3060010782294: system.realview.energy_ctrl: reading ack:0
3060012862294: system.realview.energy_ctrl: reading ack:0
3060014986294: system.realview.energy_ctrl: reading ack:0
3060017066294: system.realview.energy_ctrl: reading ack:0
3060019146294: system.realview.energy_ctrl: reading ack:0
3060021270294: system.realview.energy_ctrl: reading ack:0
3060023350294: system.realview.energy_ctrl: reading ack:0
3060025430294: system.realview.energy_ctrl: reading ack:0
3060027510294: system.realview.energy_ctrl: reading ack:0
3060029590294: system.realview.energy_ctrl: reading ack:0
3060031714294: system.realview.energy_ctrl: reading ack:0
3060033794294: system.realview.energy_ctrl: reading ack:0
3060035874294: system.realview.energy_ctrl: reading ack:0
3060037998294: system.realview.energy_ctrl: reading ack:0
3060040078294: system.realview.energy_ctrl: reading ack:0
3060042158294: system.realview.energy_ctrl: reading ack:0
3060044238294: system.realview.energy_ctrl: reading ack:0
3060046318294: system.realview.energy_ctrl: reading ack:0
3060048398294: system.realview.energy_ctrl: reading ack:0
3060050478294: system.realview.energy_ctrl: reading ack:0
3060052558294: system.realview.energy_ctrl: reading ack:0
3060054682294: system.realview.energy_ctrl: reading ack:0
3060056762294: system.realview.energy_ctrl: reading ack:0
3060058842294: system.realview.energy_ctrl: reading ack:0
3060060966294: system.realview.energy_ctrl: reading ack:0
3060063046294: system.realview.energy_ctrl: reading ack:0
3060065126294: system.realview.energy_ctrl: reading ack:0
3060067206294: system.realview.energy_ctrl: reading ack:0
3060069286294: system.realview.energy_ctrl: reading ack:0
3060071410294: system.realview.energy_ctrl: reading ack:0
3060073490294: system.realview.energy_ctrl: reading ack:0
3060075570294: system.realview.energy_ctrl: reading ack:0
3060077694294: system.realview.energy_ctrl: reading ack:0
3060079774294: system.realview.energy_ctrl: reading ack:0
3060081854294: system.realview.energy_ctrl: reading ack:0
3060083934294: system.realview.energy_ctrl: reading ack:0
3060086014294: system.realview.energy_ctrl: reading ack:0
3060088094294: system.realview.energy_ctrl: reading ack:0
3060090174294: system.realview.energy_ctrl: reading ack:0
3060092254294: system.realview.energy_ctrl: reading ack:0
3060094378294: system.realview.energy_ctrl: reading ack:0
3060096458294: system.realview.energy_ctrl: reading ack:0
3060098538294: system.realview.energy_ctrl: reading ack:0
3060100662294: system.realview.energy_ctrl: reading ack:0
3060102847294: system.realview.energy_ctrl: reading ack:1
3060103347294: system.realview.energy_ctrl: writing domain id:0
3060103357294: system.realview.energy_ctrl: reading domain 0 perf level: 12
3160113747294: system.realview.energy_ctrl: writing domain id:0
3160113757294: system.realview.energy_ctrl: reading domain 0 perf level: 12
3160120367294: system.realview.energy_ctrl: writing domain id:0
3160120377294: system.realview.energy_ctrl: reading domain 0 perf level: 12
3160121812294: system.realview.energy_ctrl: writing domain id:0
3160121907294: system.dvfs_handler: DVFS: setPerfLevel domain 0 -> 0
3160121907294: system.dvfs_handler: DVFS: Update for perf event scheduled for 3160221907294
3160121907294: system.realview.energy_ctrl: writing domain 0 perf level: 0
3160121922294: system.realview.energy_ctrl: reading ack:0
3160124162294: system.realview.energy_ctrl: reading ack:0
3160126392294: system.realview.energy_ctrl: reading ack:0
3160128622294: system.realview.energy_ctrl: reading ack:0
3160130852294: system.realview.energy_ctrl: reading ack:0
3160133082294: system.realview.energy_ctrl: reading ack:0
3160135312294: system.realview.energy_ctrl: reading ack:0
3160137652294: system.realview.energy_ctrl: reading ack:0
3160139882294: system.realview.energy_ctrl: reading ack:0
3160142222294: system.realview.energy_ctrl: reading ack:0
3160144452294: system.realview.energy_ctrl: reading ack:0
3160146792294: system.realview.energy_ctrl: reading ack:0
3160149022294: system.realview.energy_ctrl: reading ack:0
3160151362294: system.realview.energy_ctrl: reading ack:0
3160153592294: system.realview.energy_ctrl: reading ack:0
3160155932294: system.realview.energy_ctrl: reading ack:0
3160158162294: system.realview.energy_ctrl: reading ack:0
3160160502294: system.realview.energy_ctrl: reading ack:0
3160162732294: system.realview.energy_ctrl: reading ack:0
3160165072294: system.realview.energy_ctrl: reading ack:0
3160167302294: system.realview.energy_ctrl: reading ack:0
3160169642294: system.realview.energy_ctrl: reading ack:0
3160171872294: system.realview.energy_ctrl: reading ack:0
3160174212294: system.realview.energy_ctrl: reading ack:0
3160176552294: system.realview.energy_ctrl: reading ack:0
3160178782294: system.realview.energy_ctrl: reading ack:0
3160181122294: system.realview.energy_ctrl: reading ack:0
3160183352294: system.realview.energy_ctrl: reading ack:0
3160185692294: system.realview.energy_ctrl: reading ack:0
3160187922294: system.realview.energy_ctrl: reading ack:0
3160190262294: system.realview.energy_ctrl: reading ack:0
3160192492294: system.realview.energy_ctrl: reading ack:0
3160194832294: system.realview.energy_ctrl: reading ack:0
3160197062294: system.realview.energy_ctrl: reading ack:0
3160199402294: system.realview.energy_ctrl: reading ack:0
3160201632294: system.realview.energy_ctrl: reading ack:0
3160203972294: system.realview.energy_ctrl: reading ack:0
3160206202294: system.realview.energy_ctrl: reading ack:0
3160208542294: system.realview.energy_ctrl: reading ack:0
3160210772294: system.realview.energy_ctrl: reading ack:0
3160213112294: system.realview.energy_ctrl: reading ack:0
3160215342294: system.realview.energy_ctrl: reading ack:0
3160217682294: system.realview.energy_ctrl: reading ack:0
3160219912294: system.realview.energy_ctrl: reading ack:0
3160222097932: system.realview.energy_ctrl: reading ack:1
3160222169332: system.realview.energy_ctrl: writing domain id:0
3160222170760: system.realview.energy_ctrl: reading domain 0 perf level: 0
warn: Tried to write RVIO at offset 0xa8 (data 0) that doesn't exist
warn: Tried to write RVIO at offset 0xa8 (data 0) that doesn't exist
warn: Tried to write RVIO at offset 0xa8 (data 0) that doesn't exist
