gem5 Simulator System.  http://gem5.org
gem5 is copyrighted software; use the --copyright option for details.

gem5 compiled Feb  2 2015 14:13:13
gem5 started Feb  2 2015 16:22:37
gem5 executing on bigbird
command line: ./build/ARM/gem5.opt --debug-flags=Drain configs/example/se.py --cmd=/research/ljindal/445.gobmk --options=--quiet --mode gtp --input=/research/ljindal/nicklas4.tst --output=445.gobmk.stdout --errout=445.gobmk.stderr --num-cpus=1 --caches -I 10000000000 --cpu-type=detailed
Global frequency set at 1000000000000 ticks per second
      0: system.cpu.isa: ISA system set to: 0 0x5f85000
0: system.remote_gdb.listener: listening for remote gdb #0 on port 7006
**** REAL SIMULATION ****
info: Entering event queue @ 0.  Starting simulation...
warn: CP14 unimplemented crn[0], opc1[6], crm[3], opc2[4]
warn: CP14 unimplemented crn[8], opc1[2], crm[9], opc2[4]
*****TRANSFORM going to call drain()
13270500: system.cpu: Draining...
13270500: system.cpu: Main CPU structures not drained.
13270500: system.cpu: Fetch not drained.
13270500: system.cpu: Decode not drained.
13270500: system.cpu: Rename not drained.
13270500: system.cpu.iew.lsq: Not drained, SQ not empty.
13270500: system.cpu: IEW not drained.
13270500: system.cpu: CPU not drained
*****TRANSFORM DONE : going to call drain()
*****TRANSFORM calling make_rob_half
*****TRANSFORM make_rob_half original size = 192new rob size = 96
*****TRANSFORM update_rob_threads  tid 0 old maxEntries:192 new maxEntries:96
13270500: system.cpu: Resuming...
13270500: system.cpu: Activating thread: 0
info: Increasing stack size by one page.
info: Increasing stack size by one page.
info: Increasing stack size by one page.
info: Increasing stack size by one page.
info: Increasing stack size by one page.
info: Increasing stack size by one page.
info: Increasing stack size by one page.
info: Increasing stack size by one page.
info: Increasing stack size by one page.
info: Increasing stack size by one page.
info: Increasing stack size by one page.
info: Increasing stack size by one page.
info: Increasing stack size by one page.
info: Increasing stack size by one page.
info: Increasing stack size by one page.
info: Increasing stack size by one page.
info: Increasing stack size by one page.
info: Increasing stack size by one page.
info: Increasing stack size by one page.
info: Increasing stack size by one page.
Exiting @ tick 55397119500 because target called exit()
