gem5 Simulator System.  http://gem5.org
gem5 is copyrighted software; use the --copyright option for details.

gem5 compiled Feb  8 2015 23:23:02
gem5 started Feb  8 2015 23:24:38
gem5 executing on Lokeshs-MacBook-Pro.local
command line: ./build/ARM/gem5.opt --debug-flags=Drain configs/example/se.py --cmd=tests/test-progs/hello/bin/arm/linux/hello --num-cpus=1 --caches -I 10000000000 --cpu-type=arm_detailed
Global frequency set at 1000000000000 ticks per second
      0: system.cpu.isa: ISA system set to: 0x0 0x7f9fece6f800
*****TRANSFORM totalNumRegs = 128+192+640
*********TRANSFORM REG_IDX after init is 960
**** REAL SIMULATION ****
info: Entering event queue @ 0.  Starting simulation...
Hello world!
*****TRANSFORM going to call drain()
15270500: system.cpu: Draining...
15270500: system.cpu: Fetch not drained.
15270500: system.cpu: CPU not drained
*****TRANSFORM DONE with drain()
15270500: system.cpu: Fetch not drained.
15271000: system.cpu: Fetch not drained.
15271500: system.cpu: Fetch not drained.
15272000: system.cpu: Fetch not drained.
15272500: system.cpu: Fetch not drained.
15273000: system.cpu: Fetch not drained.
15273500: system.cpu: Fetch not drained.
15274000: system.cpu: Fetch not drained.
15274500: system.cpu: Fetch not drained.
15275000: system.cpu: Fetch not drained.
15275500: system.cpu: Fetch not drained.
15276000: system.cpu: Fetch not drained.
15339000: system.cpu: Main CPU structures not drained.
15339000: system.cpu: Fetch not drained.
15339500: system.cpu: Main CPU structures not drained.
15339500: system.cpu: Fetch not drained.
15340000: system.cpu: Main CPU structures not drained.
15340000: system.cpu: Fetch not drained.
15340500: system.cpu: Main CPU structures not drained.
15340500: system.cpu: Fetch not drained.
15341000: system.cpu: Main CPU structures not drained.
15341000: system.cpu: Fetch not drained.
15341500: system.cpu: Main CPU structures not drained.
15341500: system.cpu: Fetch not drained.
15341500: system.cpu: Rename not drained.
15342000: system.cpu: Main CPU structures not drained.
15342000: system.cpu: Fetch not drained.
15342000: system.cpu: Rename not drained.
15342000: system.cpu.iew.lsq: Not drained, LQ not empty.
15342000: system.cpu: IEW not drained.
15342000: system.cpu: Commit not drained.
15342500: system.cpu: Main CPU structures not drained.
15342500: system.cpu: Fetch not drained.
15342500: system.cpu: Rename not drained.
15342500: system.cpu.iew.lsq: Not drained, LQ not empty.
15342500: system.cpu: IEW not drained.
15342500: system.cpu: Commit not drained.
15343000: system.cpu: Main CPU structures not drained.
15343000: system.cpu: Fetch not drained.
15343000: system.cpu: Rename not drained.
15343000: system.cpu.iew.lsq: Not drained, LQ not empty.
15343000: system.cpu: IEW not drained.
15343000: system.cpu: Commit not drained.
15343500: system.cpu: Main CPU structures not drained.
15343500: system.cpu: Fetch not drained.
15343500: system.cpu: Rename not drained.
15343500: system.cpu.iew.lsq: Not drained, LQ not empty.
15343500: system.cpu: IEW not drained.
15343500: system.cpu: Commit not drained.
15344000: system.cpu: Main CPU structures not drained.
15344000: system.cpu: Fetch not drained.
15344000: system.cpu: Rename not drained.
15344000: system.cpu.iew.lsq: Not drained, LQ not empty.
15344000: system.cpu: IEW not drained.
15344000: system.cpu: Commit not drained.
15344500: system.cpu: Main CPU structures not drained.
15344500: system.cpu: Fetch not drained.
15344500: system.cpu: Rename not drained.
15344500: system.cpu.iew.lsq: Not drained, LQ not empty.
15344500: system.cpu: IEW not drained.
15344500: system.cpu: Commit not drained.
15345000: system.cpu.commit: Draining: 0:(0xac58=>0xac5c).(0=>1)
15345000: system.cpu.fetch: 0: Thread drained.
15345000: system.cpu: Main CPU structures not drained.
15345000: system.cpu: Fetch not drained.
15345000: system.cpu: Rename not drained.
15345000: system.cpu.iew.lsq: Not drained, LQ not empty.
15345000: system.cpu: IEW not drained.
15345000: system.cpu: Commit not drained.
15345500: system.cpu: Main CPU structures not drained.
15345500: system.cpu: Fetch not drained.
15345500: system.cpu: Rename not drained.
15345500: system.cpu: Commit not drained.
15346000: system.cpu: Fetch not drained.
REGFILE PARAMS: baseFloatRegIndex:128 sizeOfintRegFile:128 baseCCRegIndex:320 sizeOffloatRegFile:192 totalNumRegs:960 old_baseFloatRegIndex:4294967295 old_baseCCRegIndex:4294967295 old_totalNumRegs:4294967295
FREELIST ENTRIES: numFreeIntRegs:85 numFreeFloatRegs:32 numFreeCCRegs:634
*****TRANSFORM going to print the reg mappings now!
*****INT REG mappings total TheISA::NumIntRegs:43
Archreg:0 Phyreg lookup:121 value:0
Archreg:1 Phyreg lookup:125 value:13
Archreg:2 Phyreg lookup:14 value:0
Archreg:3 Phyreg lookup:79 value:0
Archreg:4 Phyreg lookup:0 value:501700
Archreg:5 Phyreg lookup:120 value:0
Archreg:6 Phyreg lookup:107 value:501700
Archreg:7 Phyreg lookup:3 value:0
Archreg:8 Phyreg lookup:81 value:0
Archreg:9 Phyreg lookup:88 value:0
Archreg:10 Phyreg lookup:127 value:0
Archreg:11 Phyreg lookup:116 value:544764
Archreg:12 Phyreg lookup:11 value:1073741824
Archreg:13 Phyreg lookup:57 value:3204447544
Archreg:14 Phyreg lookup:55 value:44408
Archreg:15 Phyreg lookup:68 value:541852
Archreg:16 Phyreg lookup:16 value:0
Archreg:17 Phyreg lookup:17 value:0
Archreg:18 Phyreg lookup:18 value:0
Archreg:19 Phyreg lookup:19 value:0
Archreg:20 Phyreg lookup:20 value:0
Archreg:21 Phyreg lookup:21 value:0
Archreg:22 Phyreg lookup:22 value:0
Archreg:23 Phyreg lookup:23 value:0
Archreg:24 Phyreg lookup:24 value:0
Archreg:25 Phyreg lookup:25 value:0
Archreg:26 Phyreg lookup:26 value:0
Archreg:27 Phyreg lookup:27 value:0
Archreg:28 Phyreg lookup:28 value:0
Archreg:29 Phyreg lookup:29 value:0
Archreg:30 Phyreg lookup:30 value:0
Archreg:31 Phyreg lookup:31 value:0
Archreg:32 Phyreg lookup:32 value:0
Archreg:33 Phyreg lookup:33 value:0
Archreg:34 Phyreg lookup:34 value:0
Archreg:35 Phyreg lookup:99 value:3204447632
Archreg:36 Phyreg lookup:86 value:36300
Archreg:37 Phyreg lookup:37 value:0
Archreg:38 Phyreg lookup:38 value:0
Archreg:39 Phyreg lookup:39 value:0
Archreg:40 Phyreg lookup:40 value:0
Archreg:41 Phyreg lookup:41 value:0
Archreg:42 Phyreg lookup:42 value:0
*****FLOAT REG mappings total TheISA::NumFloatRegs:160
Archreg:0 Phyreg lookup:128 value:0
Archreg:1 Phyreg lookup:129 value:0
Archreg:2 Phyreg lookup:130 value:0
Archreg:3 Phyreg lookup:131 value:0
Archreg:4 Phyreg lookup:132 value:0
Archreg:5 Phyreg lookup:133 value:0
Archreg:6 Phyreg lookup:134 value:0
Archreg:7 Phyreg lookup:135 value:0
Archreg:8 Phyreg lookup:136 value:0
Archreg:9 Phyreg lookup:137 value:0
Archreg:10 Phyreg lookup:138 value:0
Archreg:11 Phyreg lookup:139 value:0
Archreg:12 Phyreg lookup:140 value:0
Archreg:13 Phyreg lookup:141 value:0
Archreg:14 Phyreg lookup:142 value:0
Archreg:15 Phyreg lookup:143 value:0
Archreg:16 Phyreg lookup:144 value:0
Archreg:17 Phyreg lookup:145 value:0
Archreg:18 Phyreg lookup:146 value:0
Archreg:19 Phyreg lookup:147 value:0
Archreg:20 Phyreg lookup:148 value:0
Archreg:21 Phyreg lookup:149 value:0
Archreg:22 Phyreg lookup:150 value:0
Archreg:23 Phyreg lookup:151 value:0
Archreg:24 Phyreg lookup:152 value:0
Archreg:25 Phyreg lookup:153 value:0
Archreg:26 Phyreg lookup:154 value:0
Archreg:27 Phyreg lookup:155 value:0
Archreg:28 Phyreg lookup:156 value:0
Archreg:29 Phyreg lookup:157 value:0
Archreg:30 Phyreg lookup:158 value:0
Archreg:31 Phyreg lookup:159 value:0
Archreg:32 Phyreg lookup:160 value:0
Archreg:33 Phyreg lookup:161 value:0
Archreg:34 Phyreg lookup:162 value:0
Archreg:35 Phyreg lookup:163 value:0
Archreg:36 Phyreg lookup:164 value:0
Archreg:37 Phyreg lookup:165 value:0
Archreg:38 Phyreg lookup:166 value:0
Archreg:39 Phyreg lookup:167 value:0
Archreg:40 Phyreg lookup:168 value:0
Archreg:41 Phyreg lookup:169 value:0
Archreg:42 Phyreg lookup:170 value:0
Archreg:43 Phyreg lookup:171 value:0
Archreg:44 Phyreg lookup:172 value:0
Archreg:45 Phyreg lookup:173 value:0
Archreg:46 Phyreg lookup:174 value:0
Archreg:47 Phyreg lookup:175 value:0
Archreg:48 Phyreg lookup:176 value:0
Archreg:49 Phyreg lookup:177 value:0
Archreg:50 Phyreg lookup:178 value:0
Archreg:51 Phyreg lookup:179 value:0
Archreg:52 Phyreg lookup:180 value:0
Archreg:53 Phyreg lookup:181 value:0
Archreg:54 Phyreg lookup:182 value:0
Archreg:55 Phyreg lookup:183 value:0
Archreg:56 Phyreg lookup:184 value:0
Archreg:57 Phyreg lookup:185 value:0
Archreg:58 Phyreg lookup:186 value:0
Archreg:59 Phyreg lookup:187 value:0
Archreg:60 Phyreg lookup:188 value:0
Archreg:61 Phyreg lookup:189 value:0
Archreg:62 Phyreg lookup:190 value:0
Archreg:63 Phyreg lookup:191 value:0
Archreg:64 Phyreg lookup:192 value:0
Archreg:65 Phyreg lookup:193 value:0
Archreg:66 Phyreg lookup:194 value:0
Archreg:67 Phyreg lookup:195 value:0
Archreg:68 Phyreg lookup:196 value:0
Archreg:69 Phyreg lookup:197 value:0
Archreg:70 Phyreg lookup:198 value:0
Archreg:71 Phyreg lookup:199 value:0
Archreg:72 Phyreg lookup:200 value:0
Archreg:73 Phyreg lookup:201 value:0
Archreg:74 Phyreg lookup:202 value:0
Archreg:75 Phyreg lookup:203 value:0
Archreg:76 Phyreg lookup:204 value:0
Archreg:77 Phyreg lookup:205 value:0
Archreg:78 Phyreg lookup:206 value:0
Archreg:79 Phyreg lookup:207 value:0
Archreg:80 Phyreg lookup:208 value:0
Archreg:81 Phyreg lookup:209 value:0
Archreg:82 Phyreg lookup:210 value:0
Archreg:83 Phyreg lookup:211 value:0
Archreg:84 Phyreg lookup:212 value:0
Archreg:85 Phyreg lookup:213 value:0
Archreg:86 Phyreg lookup:214 value:0
Archreg:87 Phyreg lookup:215 value:0
Archreg:88 Phyreg lookup:216 value:0
Archreg:89 Phyreg lookup:217 value:0
Archreg:90 Phyreg lookup:218 value:0
Archreg:91 Phyreg lookup:219 value:0
Archreg:92 Phyreg lookup:220 value:0
Archreg:93 Phyreg lookup:221 value:0
Archreg:94 Phyreg lookup:222 value:0
Archreg:95 Phyreg lookup:223 value:0
Archreg:96 Phyreg lookup:224 value:0
Archreg:97 Phyreg lookup:225 value:0
Archreg:98 Phyreg lookup:226 value:0
Archreg:99 Phyreg lookup:227 value:0
Archreg:100 Phyreg lookup:228 value:0
Archreg:101 Phyreg lookup:229 value:0
Archreg:102 Phyreg lookup:230 value:0
Archreg:103 Phyreg lookup:231 value:0
Archreg:104 Phyreg lookup:232 value:0
Archreg:105 Phyreg lookup:233 value:0
Archreg:106 Phyreg lookup:234 value:0
Archreg:107 Phyreg lookup:235 value:0
Archreg:108 Phyreg lookup:236 value:0
Archreg:109 Phyreg lookup:237 value:0
Archreg:110 Phyreg lookup:238 value:0
Archreg:111 Phyreg lookup:239 value:0
Archreg:112 Phyreg lookup:240 value:0
Archreg:113 Phyreg lookup:241 value:0
Archreg:114 Phyreg lookup:242 value:0
Archreg:115 Phyreg lookup:243 value:0
Archreg:116 Phyreg lookup:244 value:0
Archreg:117 Phyreg lookup:245 value:0
Archreg:118 Phyreg lookup:246 value:0
Archreg:119 Phyreg lookup:247 value:0
Archreg:120 Phyreg lookup:248 value:0
Archreg:121 Phyreg lookup:249 value:0
Archreg:122 Phyreg lookup:250 value:0
Archreg:123 Phyreg lookup:251 value:0
Archreg:124 Phyreg lookup:252 value:0
Archreg:125 Phyreg lookup:253 value:0
Archreg:126 Phyreg lookup:254 value:0
Archreg:127 Phyreg lookup:255 value:0
Archreg:128 Phyreg lookup:256 value:0
Archreg:129 Phyreg lookup:257 value:0
Archreg:130 Phyreg lookup:258 value:0
Archreg:131 Phyreg lookup:259 value:0
Archreg:132 Phyreg lookup:260 value:0
Archreg:133 Phyreg lookup:261 value:0
Archreg:134 Phyreg lookup:262 value:0
Archreg:135 Phyreg lookup:263 value:0
Archreg:136 Phyreg lookup:264 value:0
Archreg:137 Phyreg lookup:265 value:0
Archreg:138 Phyreg lookup:266 value:0
Archreg:139 Phyreg lookup:267 value:0
Archreg:140 Phyreg lookup:268 value:0
Archreg:141 Phyreg lookup:269 value:0
Archreg:142 Phyreg lookup:270 value:0
Archreg:143 Phyreg lookup:271 value:0
Archreg:144 Phyreg lookup:272 value:0
Archreg:145 Phyreg lookup:273 value:0
Archreg:146 Phyreg lookup:274 value:0
Archreg:147 Phyreg lookup:275 value:0
Archreg:148 Phyreg lookup:276 value:0
Archreg:149 Phyreg lookup:277 value:0
Archreg:150 Phyreg lookup:278 value:0
Archreg:151 Phyreg lookup:279 value:0
Archreg:152 Phyreg lookup:280 value:0
Archreg:153 Phyreg lookup:281 value:0
Archreg:154 Phyreg lookup:282 value:0
Archreg:155 Phyreg lookup:283 value:0
Archreg:156 Phyreg lookup:284 value:0
Archreg:157 Phyreg lookup:285 value:0
Archreg:158 Phyreg lookup:286 value:0
Archreg:159 Phyreg lookup:287 value:0
*****CC REG mappings total TheISA::NumCCRegs:6
Archreg:0 Phyreg lookup:525 value:1
Archreg:1 Phyreg lookup:519 value:1
Archreg:2 Phyreg lookup:515 value:0
Archreg:3 Phyreg lookup:323 value:0
Archreg:4 Phyreg lookup:906 value:0
Archreg:5 Phyreg lookup:325 value:0
restrict_intreg_mapping BEFORE numFreeEntries:32
restrict_intreg_mapping: REMAPPING phy:121 against regfile->numIntPhysRegs():128 with tf_regfile_scale_factor:2
before numFreeRegs:85
after numFreeRegs:85
REJECTING new phy:92old phy:121
before numFreeRegs:85
after numFreeRegs:85
REJECTING new phy:114old phy:92
before numFreeRegs:85
after numFreeRegs:85
ACCEPTING new phy:48old phy:114
restrict_intreg_mapping: REMAPPING phy:125 against regfile->numIntPhysRegs():128 with tf_regfile_scale_factor:2
before numFreeRegs:85
after numFreeRegs:85
ACCEPTING new phy:43old phy:125
restrict_intreg_mapping: Skipping phy:14 against regfile->numIntPhysRegs():128 with tf_regfile_scale_factor:2
restrict_intreg_mapping: REMAPPING phy:79 against regfile->numIntPhysRegs():128 with tf_regfile_scale_factor:2
before numFreeRegs:85
after numFreeRegs:85
REJECTING new phy:126old phy:79
before numFreeRegs:85
after numFreeRegs:85
ACCEPTING new phy:4old phy:126
restrict_intreg_mapping: Skipping phy:0 against regfile->numIntPhysRegs():128 with tf_regfile_scale_factor:2
restrict_intreg_mapping: REMAPPING phy:120 against regfile->numIntPhysRegs():128 with tf_regfile_scale_factor:2
before numFreeRegs:85
after numFreeRegs:85
REJECTING new phy:80old phy:120
before numFreeRegs:85
after numFreeRegs:85
REJECTING new phy:74old phy:80
before numFreeRegs:85
after numFreeRegs:85
REJECTING new phy:65old phy:74
before numFreeRegs:85
after numFreeRegs:85
REJECTING new phy:102old phy:65
before numFreeRegs:85
after numFreeRegs:85
REJECTING new phy:100old phy:102
before numFreeRegs:85
after numFreeRegs:85
ACCEPTING new phy:52old phy:100
restrict_intreg_mapping: REMAPPING phy:107 against regfile->numIntPhysRegs():128 with tf_regfile_scale_factor:2
before numFreeRegs:85
after numFreeRegs:85
REJECTING new phy:90old phy:107
before numFreeRegs:85
after numFreeRegs:85
REJECTING new phy:113old phy:90
before numFreeRegs:85
after numFreeRegs:85
REJECTING new phy:119old phy:113
before numFreeRegs:85
after numFreeRegs:85
REJECTING new phy:95old phy:119
before numFreeRegs:85
after numFreeRegs:85
REJECTING new phy:111old phy:95
before numFreeRegs:85
after numFreeRegs:85
REJECTING new phy:118old phy:111
before numFreeRegs:85
after numFreeRegs:85
REJECTING new phy:75old phy:118
before numFreeRegs:85
after numFreeRegs:85
REJECTING new phy:91old phy:75
before numFreeRegs:85
after numFreeRegs:85
REJECTING new phy:104old phy:91
before numFreeRegs:85
after numFreeRegs:85
REJECTING new phy:94old phy:104
before numFreeRegs:85
after numFreeRegs:85
ACCEPTING new phy:2old phy:94
restrict_intreg_mapping: Skipping phy:3 against regfile->numIntPhysRegs():128 with tf_regfile_scale_factor:2
restrict_intreg_mapping: REMAPPING phy:81 against regfile->numIntPhysRegs():128 with tf_regfile_scale_factor:2
before numFreeRegs:85
after numFreeRegs:85
ACCEPTING new phy:49old phy:81
restrict_intreg_mapping: REMAPPING phy:88 against regfile->numIntPhysRegs():128 with tf_regfile_scale_factor:2
before numFreeRegs:85
after numFreeRegs:85
REJECTING new phy:103old phy:88
before numFreeRegs:85
after numFreeRegs:85
REJECTING new phy:97old phy:103
before numFreeRegs:85
after numFreeRegs:85
ACCEPTING new phy:61old phy:97
restrict_intreg_mapping: REMAPPING phy:127 against regfile->numIntPhysRegs():128 with tf_regfile_scale_factor:2
before numFreeRegs:85
after numFreeRegs:85
ACCEPTING new phy:10old phy:127
restrict_intreg_mapping: REMAPPING phy:116 against regfile->numIntPhysRegs():128 with tf_regfile_scale_factor:2
before numFreeRegs:85
after numFreeRegs:85
REJECTING new phy:77old phy:116
before numFreeRegs:85
after numFreeRegs:85
ACCEPTING new phy:53old phy:77
restrict_intreg_mapping: Skipping phy:11 against regfile->numIntPhysRegs():128 with tf_regfile_scale_factor:2
restrict_intreg_mapping: Skipping phy:57 against regfile->numIntPhysRegs():128 with tf_regfile_scale_factor:2
restrict_intreg_mapping: Skipping phy:55 against regfile->numIntPhysRegs():128 with tf_regfile_scale_factor:2
restrict_intreg_mapping: REMAPPING phy:68 against regfile->numIntPhysRegs():128 with tf_regfile_scale_factor:2
before numFreeRegs:85
after numFreeRegs:85
REJECTING new phy:84old phy:68
before numFreeRegs:85
after numFreeRegs:85
REJECTING new phy:82old phy:84
before numFreeRegs:85
after numFreeRegs:85
REJECTING new phy:96old phy:82
before numFreeRegs:85
after numFreeRegs:85
ACCEPTING new phy:51old phy:96
restrict_intreg_mapping: Skipping phy:16 against regfile->numIntPhysRegs():128 with tf_regfile_scale_factor:2
restrict_intreg_mapping: Skipping phy:17 against regfile->numIntPhysRegs():128 with tf_regfile_scale_factor:2
restrict_intreg_mapping: Skipping phy:18 against regfile->numIntPhysRegs():128 with tf_regfile_scale_factor:2
restrict_intreg_mapping: Skipping phy:19 against regfile->numIntPhysRegs():128 with tf_regfile_scale_factor:2
restrict_intreg_mapping: Skipping phy:20 against regfile->numIntPhysRegs():128 with tf_regfile_scale_factor:2
restrict_intreg_mapping: Skipping phy:21 against regfile->numIntPhysRegs():128 with tf_regfile_scale_factor:2
restrict_intreg_mapping: Skipping phy:22 against regfile->numIntPhysRegs():128 with tf_regfile_scale_factor:2
restrict_intreg_mapping: Skipping phy:23 against regfile->numIntPhysRegs():128 with tf_regfile_scale_factor:2
restrict_intreg_mapping: Skipping phy:24 against regfile->numIntPhysRegs():128 with tf_regfile_scale_factor:2
restrict_intreg_mapping: Skipping phy:25 against regfile->numIntPhysRegs():128 with tf_regfile_scale_factor:2
restrict_intreg_mapping: Skipping phy:26 against regfile->numIntPhysRegs():128 with tf_regfile_scale_factor:2
restrict_intreg_mapping: Skipping phy:27 against regfile->numIntPhysRegs():128 with tf_regfile_scale_factor:2
restrict_intreg_mapping: Skipping phy:28 against regfile->numIntPhysRegs():128 with tf_regfile_scale_factor:2
restrict_intreg_mapping: Skipping phy:29 against regfile->numIntPhysRegs():128 with tf_regfile_scale_factor:2
restrict_intreg_mapping: Skipping phy:30 against regfile->numIntPhysRegs():128 with tf_regfile_scale_factor:2
restrict_intreg_mapping: Skipping phy:31 against regfile->numIntPhysRegs():128 with tf_regfile_scale_factor:2
restrict_intreg_mapping: Skipping phy:32 against regfile->numIntPhysRegs():128 with tf_regfile_scale_factor:2
restrict_intreg_mapping: Skipping phy:33 against regfile->numIntPhysRegs():128 with tf_regfile_scale_factor:2
restrict_intreg_mapping: Skipping phy:34 against regfile->numIntPhysRegs():128 with tf_regfile_scale_factor:2
restrict_intreg_mapping: REMAPPING phy:99 against regfile->numIntPhysRegs():128 with tf_regfile_scale_factor:2
before numFreeRegs:85
after numFreeRegs:85
ACCEPTING new phy:6old phy:99
restrict_intreg_mapping: REMAPPING phy:86 against regfile->numIntPhysRegs():128 with tf_regfile_scale_factor:2
before numFreeRegs:85
after numFreeRegs:85
REJECTING new phy:70old phy:86
before numFreeRegs:85
after numFreeRegs:85
ACCEPTING new phy:44old phy:70
restrict_intreg_mapping: Skipping phy:37 against regfile->numIntPhysRegs():128 with tf_regfile_scale_factor:2
restrict_intreg_mapping: Skipping phy:38 against regfile->numIntPhysRegs():128 with tf_regfile_scale_factor:2
restrict_intreg_mapping: Skipping phy:39 against regfile->numIntPhysRegs():128 with tf_regfile_scale_factor:2
restrict_intreg_mapping: Skipping phy:40 against regfile->numIntPhysRegs():128 with tf_regfile_scale_factor:2
restrict_intreg_mapping: Skipping phy:41 against regfile->numIntPhysRegs():128 with tf_regfile_scale_factor:2
restrict_intreg_mapping: Skipping phy:42 against regfile->numIntPhysRegs():128 with tf_regfile_scale_factor:2
restrict_intreg_mapping AFTER numFreeEntries:32
restrict_ccreg_mapping BEFORE numFreeEntries:32
restrict_ccreg_mapping: Skipping phy:525 against regFile->numIntPhysRegs() + regFile->numFloatPhysRegs()+ regfile->numCCPhysRegs():960 with tf_regfile_scale_factor:2
restrict_ccreg_mapping: Skipping phy:519 against regFile->numIntPhysRegs() + regFile->numFloatPhysRegs()+ regfile->numCCPhysRegs():960 with tf_regfile_scale_factor:2
restrict_ccreg_mapping: Skipping phy:515 against regFile->numIntPhysRegs() + regFile->numFloatPhysRegs()+ regfile->numCCPhysRegs():960 with tf_regfile_scale_factor:2
restrict_ccreg_mapping: Skipping phy:323 against regFile->numIntPhysRegs() + regFile->numFloatPhysRegs()+ regfile->numCCPhysRegs():960 with tf_regfile_scale_factor:2
restrict_ccreg_mapping: REMAPPING phy:906 against regFile->numIntPhysRegs() + regFile->numFloatPhysRegs()+ regfile->numCCPhysRegs():960 with tf_regfile_scale_factor:2
before numFreeRegs:634
after numFreeRegs:634
ACCEPTING new phy:521old phy:906
restrict_ccreg_mapping: Skipping phy:325 against regFile->numIntPhysRegs() + regFile->numFloatPhysRegs()+ regfile->numCCPhysRegs():960 with tf_regfile_scale_factor:2
restrict_ccreg_mapping AFTER numFreeEntries:32
*****TRANSFORM going to print the reg mappings now!
*****INT REG mappings total TheISA::NumIntRegs:43
Archreg:0 Phyreg lookup:48 value:0
Archreg:1 Phyreg lookup:43 value:13
Archreg:2 Phyreg lookup:14 value:0
Archreg:3 Phyreg lookup:4 value:0
Archreg:4 Phyreg lookup:0 value:501700
Archreg:5 Phyreg lookup:52 value:0
Archreg:6 Phyreg lookup:2 value:501700
Archreg:7 Phyreg lookup:3 value:0
Archreg:8 Phyreg lookup:49 value:0
Archreg:9 Phyreg lookup:61 value:0
Archreg:10 Phyreg lookup:10 value:0
Archreg:11 Phyreg lookup:53 value:544764
Archreg:12 Phyreg lookup:11 value:1073741824
Archreg:13 Phyreg lookup:57 value:3204447544
Archreg:14 Phyreg lookup:55 value:44408
Archreg:15 Phyreg lookup:51 value:541852
Archreg:16 Phyreg lookup:16 value:0
Archreg:17 Phyreg lookup:17 value:0
Archreg:18 Phyreg lookup:18 value:0
Archreg:19 Phyreg lookup:19 value:0
Archreg:20 Phyreg lookup:20 value:0
Archreg:21 Phyreg lookup:21 value:0
Archreg:22 Phyreg lookup:22 value:0
Archreg:23 Phyreg lookup:23 value:0
Archreg:24 Phyreg lookup:24 value:0
Archreg:25 Phyreg lookup:25 value:0
Archreg:26 Phyreg lookup:26 value:0
Archreg:27 Phyreg lookup:27 value:0
Archreg:28 Phyreg lookup:28 value:0
Archreg:29 Phyreg lookup:29 value:0
Archreg:30 Phyreg lookup:30 value:0
Archreg:31 Phyreg lookup:31 value:0
Archreg:32 Phyreg lookup:32 value:0
Archreg:33 Phyreg lookup:33 value:0
Archreg:34 Phyreg lookup:34 value:0
Archreg:35 Phyreg lookup:6 value:3204447632
Archreg:36 Phyreg lookup:44 value:36300
Archreg:37 Phyreg lookup:37 value:0
Archreg:38 Phyreg lookup:38 value:0
Archreg:39 Phyreg lookup:39 value:0
Archreg:40 Phyreg lookup:40 value:0
Archreg:41 Phyreg lookup:41 value:0
Archreg:42 Phyreg lookup:42 value:0
*****FLOAT REG mappings total TheISA::NumFloatRegs:160
Archreg:0 Phyreg lookup:128 value:0
Archreg:1 Phyreg lookup:129 value:0
Archreg:2 Phyreg lookup:130 value:0
Archreg:3 Phyreg lookup:131 value:0
Archreg:4 Phyreg lookup:132 value:0
Archreg:5 Phyreg lookup:133 value:0
Archreg:6 Phyreg lookup:134 value:0
Archreg:7 Phyreg lookup:135 value:0
Archreg:8 Phyreg lookup:136 value:0
Archreg:9 Phyreg lookup:137 value:0
Archreg:10 Phyreg lookup:138 value:0
Archreg:11 Phyreg lookup:139 value:0
Archreg:12 Phyreg lookup:140 value:0
Archreg:13 Phyreg lookup:141 value:0
Archreg:14 Phyreg lookup:142 value:0
Archreg:15 Phyreg lookup:143 value:0
Archreg:16 Phyreg lookup:144 value:0
Archreg:17 Phyreg lookup:145 value:0
Archreg:18 Phyreg lookup:146 value:0
Archreg:19 Phyreg lookup:147 value:0
Archreg:20 Phyreg lookup:148 value:0
Archreg:21 Phyreg lookup:149 value:0
Archreg:22 Phyreg lookup:150 value:0
Archreg:23 Phyreg lookup:151 value:0
Archreg:24 Phyreg lookup:152 value:0
Archreg:25 Phyreg lookup:153 value:0
Archreg:26 Phyreg lookup:154 value:0
Archreg:27 Phyreg lookup:155 value:0
Archreg:28 Phyreg lookup:156 value:0
Archreg:29 Phyreg lookup:157 value:0
Archreg:30 Phyreg lookup:158 value:0
Archreg:31 Phyreg lookup:159 value:0
Archreg:32 Phyreg lookup:160 value:0
Archreg:33 Phyreg lookup:161 value:0
Archreg:34 Phyreg lookup:162 value:0
Archreg:35 Phyreg lookup:163 value:0
Archreg:36 Phyreg lookup:164 value:0
Archreg:37 Phyreg lookup:165 value:0
Archreg:38 Phyreg lookup:166 value:0
Archreg:39 Phyreg lookup:167 value:0
Archreg:40 Phyreg lookup:168 value:0
Archreg:41 Phyreg lookup:169 value:0
Archreg:42 Phyreg lookup:170 value:0
Archreg:43 Phyreg lookup:171 value:0
Archreg:44 Phyreg lookup:172 value:0
Archreg:45 Phyreg lookup:173 value:0
Archreg:46 Phyreg lookup:174 value:0
Archreg:47 Phyreg lookup:175 value:0
Archreg:48 Phyreg lookup:176 value:0
Archreg:49 Phyreg lookup:177 value:0
Archreg:50 Phyreg lookup:178 value:0
Archreg:51 Phyreg lookup:179 value:0
Archreg:52 Phyreg lookup:180 value:0
Archreg:53 Phyreg lookup:181 value:0
Archreg:54 Phyreg lookup:182 value:0
Archreg:55 Phyreg lookup:183 value:0
Archreg:56 Phyreg lookup:184 value:0
Archreg:57 Phyreg lookup:185 value:0
Archreg:58 Phyreg lookup:186 value:0
Archreg:59 Phyreg lookup:187 value:0
Archreg:60 Phyreg lookup:188 value:0
Archreg:61 Phyreg lookup:189 value:0
Archreg:62 Phyreg lookup:190 value:0
Archreg:63 Phyreg lookup:191 value:0
Archreg:64 Phyreg lookup:192 value:0
Archreg:65 Phyreg lookup:193 value:0
Archreg:66 Phyreg lookup:194 value:0
Archreg:67 Phyreg lookup:195 value:0
Archreg:68 Phyreg lookup:196 value:0
Archreg:69 Phyreg lookup:197 value:0
Archreg:70 Phyreg lookup:198 value:0
Archreg:71 Phyreg lookup:199 value:0
Archreg:72 Phyreg lookup:200 value:0
Archreg:73 Phyreg lookup:201 value:0
Archreg:74 Phyreg lookup:202 value:0
Archreg:75 Phyreg lookup:203 value:0
Archreg:76 Phyreg lookup:204 value:0
Archreg:77 Phyreg lookup:205 value:0
Archreg:78 Phyreg lookup:206 value:0
Archreg:79 Phyreg lookup:207 value:0
Archreg:80 Phyreg lookup:208 value:0
Archreg:81 Phyreg lookup:209 value:0
Archreg:82 Phyreg lookup:210 value:0
Archreg:83 Phyreg lookup:211 value:0
Archreg:84 Phyreg lookup:212 value:0
Archreg:85 Phyreg lookup:213 value:0
Archreg:86 Phyreg lookup:214 value:0
Archreg:87 Phyreg lookup:215 value:0
Archreg:88 Phyreg lookup:216 value:0
Archreg:89 Phyreg lookup:217 value:0
Archreg:90 Phyreg lookup:218 value:0
Archreg:91 Phyreg lookup:219 value:0
Archreg:92 Phyreg lookup:220 value:0
Archreg:93 Phyreg lookup:221 value:0
Archreg:94 Phyreg lookup:222 value:0
Archreg:95 Phyreg lookup:223 value:0
Archreg:96 Phyreg lookup:224 value:0
Archreg:97 Phyreg lookup:225 value:0
Archreg:98 Phyreg lookup:226 value:0
Archreg:99 Phyreg lookup:227 value:0
Archreg:100 Phyreg lookup:228 value:0
Archreg:101 Phyreg lookup:229 value:0
Archreg:102 Phyreg lookup:230 value:0
Archreg:103 Phyreg lookup:231 value:0
Archreg:104 Phyreg lookup:232 value:0
Archreg:105 Phyreg lookup:233 value:0
Archreg:106 Phyreg lookup:234 value:0
Archreg:107 Phyreg lookup:235 value:0
Archreg:108 Phyreg lookup:236 value:0
Archreg:109 Phyreg lookup:237 value:0
Archreg:110 Phyreg lookup:238 value:0
Archreg:111 Phyreg lookup:239 value:0
Archreg:112 Phyreg lookup:240 value:0
Archreg:113 Phyreg lookup:241 value:0
Archreg:114 Phyreg lookup:242 value:0
Archreg:115 Phyreg lookup:243 value:0
Archreg:116 Phyreg lookup:244 value:0
Archreg:117 Phyreg lookup:245 value:0
Archreg:118 Phyreg lookup:246 value:0
Archreg:119 Phyreg lookup:247 value:0
Archreg:120 Phyreg lookup:248 value:0
Archreg:121 Phyreg lookup:249 value:0
Archreg:122 Phyreg lookup:250 value:0
Archreg:123 Phyreg lookup:251 value:0
Archreg:124 Phyreg lookup:252 value:0
Archreg:125 Phyreg lookup:253 value:0
Archreg:126 Phyreg lookup:254 value:0
Archreg:127 Phyreg lookup:255 value:0
Archreg:128 Phyreg lookup:256 value:0
Archreg:129 Phyreg lookup:257 value:0
Archreg:130 Phyreg lookup:258 value:0
Archreg:131 Phyreg lookup:259 value:0
Archreg:132 Phyreg lookup:260 value:0
Archreg:133 Phyreg lookup:261 value:0
Archreg:134 Phyreg lookup:262 value:0
Archreg:135 Phyreg lookup:263 value:0
Archreg:136 Phyreg lookup:264 value:0
Archreg:137 Phyreg lookup:265 value:0
Archreg:138 Phyreg lookup:266 value:0
Archreg:139 Phyreg lookup:267 value:0
Archreg:140 Phyreg lookup:268 value:0
Archreg:141 Phyreg lookup:269 value:0
Archreg:142 Phyreg lookup:270 value:0
Archreg:143 Phyreg lookup:271 value:0
Archreg:144 Phyreg lookup:272 value:0
Archreg:145 Phyreg lookup:273 value:0
Archreg:146 Phyreg lookup:274 value:0
Archreg:147 Phyreg lookup:275 value:0
Archreg:148 Phyreg lookup:276 value:0
Archreg:149 Phyreg lookup:277 value:0
Archreg:150 Phyreg lookup:278 value:0
Archreg:151 Phyreg lookup:279 value:0
Archreg:152 Phyreg lookup:280 value:0
Archreg:153 Phyreg lookup:281 value:0
Archreg:154 Phyreg lookup:282 value:0
Archreg:155 Phyreg lookup:283 value:0
Archreg:156 Phyreg lookup:284 value:0
Archreg:157 Phyreg lookup:285 value:0
Archreg:158 Phyreg lookup:286 value:0
Archreg:159 Phyreg lookup:287 value:0
*****CC REG mappings total TheISA::NumCCRegs:6
Archreg:0 Phyreg lookup:525 value:1
Archreg:1 Phyreg lookup:519 value:1
Archreg:2 Phyreg lookup:515 value:0
Archreg:3 Phyreg lookup:323 value:0
Archreg:4 Phyreg lookup:521 value:0
Archreg:5 Phyreg lookup:325 value:0
REGFILE PARAMS: baseFloatRegIndex:64 sizeOfintRegFile:64 baseCCRegIndex:256 sizeOffloatRegFile:192 totalNumRegs:896 old_baseFloatRegIndex:128 old_baseCCRegIndex:320 old_totalNumRegs:960
FREELIST ENTRIES: numFreeIntRegs:21 numFreeFloatRegs:32 numFreeCCRegs:570
*****TRANSFORM calling make_rob_half
*****TRANSFORM make_rob_half original size = 40new rob size = 20
*****TRANSFORM update_rob_threads  tid 0 old maxEntries:40 new maxEntries:20
*****TRANSFORM DONE calling make_rob_half
*****TRANSFORM calling functions to scale LSQ
*****TRANSFORM scale_entire_lsq : Old LQEntries:16 Old SQEntries:16 New LQEntries:8 New SQEntries:8
*****TRANSFORM update_lsq_units :  TID: 0 scale_lsq_unit 
*****TRANSFROM scale_lsq_unit : Old LQEntries:17 Old SQEntries:17
 New LQEntries:9 New SQEntries:9
*****TRANSFORM LSQ<Impl>::resetEntries tid:0 Calling resizeEntries
****TRANSFORM LSQUnit<Impl>::resizeLQ : Old LQEntries:9 New LQEntries:9
****TRANSFORM LSQUnit<Impl>::resizeSQ : Old SQEntries:9 New SQEntries:9
*****TRANSFORM DONE calling functions to scale LSQ
****TRANSFORM DRAINRESUME going to call drainResume
15346500: system.cpu: Resuming...
15346500: system.cpu: Activating thread: 0
****TRANSFORM DONE Core should resume now!
baseFloatRegIndex:64 and reg_idx:4
baseFloatRegIndex:64 and reg_idx:57
baseFloatRegIndex:64 and reg_idx:50
baseFloatRegIndex:64 and reg_idx:36
baseFloatRegIndex:64 and reg_idx:61
baseFloatRegIndex:64 and reg_idx:46
baseFloatRegIndex:64 and reg_idx:4
baseFloatRegIndex:64 and reg_idx:57
baseFloatRegIndex:64 and reg_idx:13
baseFloatRegIndex:64 and reg_idx:13
baseFloatRegIndex:64 and reg_idx:15
baseFloatRegIndex:64 and reg_idx:9
baseFloatRegIndex:64 and reg_idx:13
baseFloatRegIndex:64 and reg_idx:56
baseFloatRegIndex:64 and reg_idx:59
baseFloatRegIndex:64 and reg_idx:57
baseFloatRegIndex:64 and reg_idx:50
baseFloatRegIndex:64 and reg_idx:13
baseFloatRegIndex:64 and reg_idx:35
baseFloatRegIndex:64 and reg_idx:63
baseFloatRegIndex:64 and reg_idx:13
baseFloatRegIndex:64 and reg_idx:62
baseFloatRegIndex:64 and reg_idx:54
baseFloatRegIndex:64 and reg_idx:13
baseFloatRegIndex:64 and reg_idx:47
baseFloatRegIndex:64 and reg_idx:36
baseFloatRegIndex:64 and reg_idx:44
baseFloatRegIndex:64 and reg_idx:47
baseFloatRegIndex:64 and reg_idx:53
baseFloatRegIndex:64 and reg_idx:54
baseFloatRegIndex:64 and reg_idx:10
baseFloatRegIndex:64 and reg_idx:62
baseFloatRegIndex:64 and reg_idx:61
baseFloatRegIndex:64 and reg_idx:63
baseFloatRegIndex:64 and reg_idx:49
baseFloatRegIndex:64 and reg_idx:35
baseFloatRegIndex:64 and reg_idx:3
baseFloatRegIndex:64 and reg_idx:59
baseFloatRegIndex:64 and reg_idx:2
baseFloatRegIndex:64 and reg_idx:56
baseFloatRegIndex:64 and reg_idx:52
baseFloatRegIndex:64 and reg_idx:9
baseFloatRegIndex:64 and reg_idx:0
baseFloatRegIndex:64 and reg_idx:15
baseFloatRegIndex:64 and reg_idx:57
baseFloatRegIndex:64 and reg_idx:13
baseFloatRegIndex:64 and reg_idx:50
baseFloatRegIndex:64 and reg_idx:46
baseFloatRegIndex:64 and reg_idx:43
baseFloatRegIndex:64 and reg_idx:36
baseFloatRegIndex:64 and reg_idx:48
baseFloatRegIndex:64 and reg_idx:50
baseFloatRegIndex:64 and reg_idx:461
baseFloatRegIndex:64 and reg_idx:451
baseFloatRegIndex:64 and reg_idx:455
baseFloatRegIndex:64 and reg_idx:61
baseFloatRegIndex:64 and reg_idx:45
baseFloatRegIndex:64 and reg_idx:57
baseFloatRegIndex:64 and reg_idx:1
baseFloatRegIndex:64 and reg_idx:1
baseFloatRegIndex:64 and reg_idx:60
baseFloatRegIndex:64 and reg_idx:58
baseFloatRegIndex:64 and reg_idx:1
baseFloatRegIndex:64 and reg_idx:5
baseFloatRegIndex:64 and reg_idx:8
baseFloatRegIndex:64 and reg_idx:1
baseFloatRegIndex:64 and reg_idx:7
baseFloatRegIndex:64 and reg_idx:12
baseFloatRegIndex:64 and reg_idx:1
baseFloatRegIndex:64 and reg_idx:47
baseFloatRegIndex:64 and reg_idx:54
baseFloatRegIndex:64 and reg_idx:1
baseFloatRegIndex:64 and reg_idx:62
baseFloatRegIndex:64 and reg_idx:61
baseFloatRegIndex:64 and reg_idx:45
baseFloatRegIndex:64 and reg_idx:1
baseFloatRegIndex:64 and reg_idx:63
baseFloatRegIndex:64 and reg_idx:62
baseFloatRegIndex:64 and reg_idx:35
baseFloatRegIndex:64 and reg_idx:57
baseFloatRegIndex:64 and reg_idx:1
baseFloatRegIndex:64 and reg_idx:35
baseFloatRegIndex:64 and reg_idx:59
baseFloatRegIndex:64 and reg_idx:59
baseFloatRegIndex:64 and reg_idx:56
baseFloatRegIndex:64 and reg_idx:45
baseFloatRegIndex:64 and reg_idx:56
baseFloatRegIndex:64 and reg_idx:45
baseFloatRegIndex:64 and reg_idx:9
baseFloatRegIndex:64 and reg_idx:48
baseFloatRegIndex:64 and reg_idx:1
baseFloatRegIndex:64 and reg_idx:63
baseFloatRegIndex:64 and reg_idx:1
baseFloatRegIndex:64 and reg_idx:1
baseFloatRegIndex:64 and reg_idx:35
baseFloatRegIndex:64 and reg_idx:15
baseFloatRegIndex:64 and reg_idx:57
baseFloatRegIndex:64 and reg_idx:1
baseFloatRegIndex:64 and reg_idx:60
baseFloatRegIndex:64 and reg_idx:58
baseFloatRegIndex:64 and reg_idx:13
baseFloatRegIndex:64 and reg_idx:1
baseFloatRegIndex:64 and reg_idx:5
baseFloatRegIndex:64 and reg_idx:8
baseFloatRegIndex:64 and reg_idx:1
baseFloatRegIndex:64 and reg_idx:7
baseFloatRegIndex:64 and reg_idx:12
baseFloatRegIndex:64 and reg_idx:13
baseFloatRegIndex:64 and reg_idx:1
baseFloatRegIndex:64 and reg_idx:60
baseFloatRegIndex:64 and reg_idx:58
baseFloatRegIndex:64 and reg_idx:47
baseFloatRegIndex:64 and reg_idx:54
baseFloatRegIndex:64 and reg_idx:0
baseFloatRegIndex:64 and reg_idx:52
baseFloatRegIndex:64 and reg_idx:5
baseFloatRegIndex:64 and reg_idx:8
baseFloatRegIndex:64 and reg_idx:62
baseFloatRegIndex:64 and reg_idx:2
baseFloatRegIndex:64 and reg_idx:3
baseFloatRegIndex:64 and reg_idx:7
baseFloatRegIndex:64 and reg_idx:12
baseFloatRegIndex:64 and reg_idx:56
baseFloatRegIndex:64 and reg_idx:46
baseFloatRegIndex:64 and reg_idx:46
baseFloatRegIndex:64 and reg_idx:36
baseFloatRegIndex:64 and reg_idx:49
baseFloatRegIndex:64 and reg_idx:61
baseFloatRegIndex:64 and reg_idx:62
baseFloatRegIndex:64 and reg_idx:47
baseFloatRegIndex:64 and reg_idx:54
baseFloatRegIndex:64 and reg_idx:35
baseFloatRegIndex:64 and reg_idx:50
baseFloatRegIndex:64 and reg_idx:46
baseFloatRegIndex:64 and reg_idx:50
baseFloatRegIndex:64 and reg_idx:48
baseFloatRegIndex:64 and reg_idx:48
baseFloatRegIndex:64 and reg_idx:10
baseFloatRegIndex:64 and reg_idx:53
baseFloatRegIndex:64 and reg_idx:62
baseFloatRegIndex:64 and reg_idx:63
baseFloatRegIndex:64 and reg_idx:44
baseFloatRegIndex:64 and reg_idx:1
baseFloatRegIndex:64 and reg_idx:35
baseFloatRegIndex:64 and reg_idx:51
baseFloatRegIndex:64 and reg_idx:56
baseFloatRegIndex:64 and reg_idx:57
baseFloatRegIndex:64 and reg_idx:57
baseFloatRegIndex:64 and reg_idx:56
baseFloatRegIndex:64 and reg_idx:0
baseFloatRegIndex:64 and reg_idx:52
baseFloatRegIndex:64 and reg_idx:52
baseFloatRegIndex:64 and reg_idx:59
baseFloatRegIndex:64 and reg_idx:2
baseFloatRegIndex:64 and reg_idx:2
baseFloatRegIndex:64 and reg_idx:59
baseFloatRegIndex:64 and reg_idx:59
baseFloatRegIndex:64 and reg_idx:2
baseFloatRegIndex:64 and reg_idx:3
baseFloatRegIndex:64 and reg_idx:4
baseFloatRegIndex:64 and reg_idx:56
baseFloatRegIndex:64 and reg_idx:56
baseFloatRegIndex:64 and reg_idx:2
baseFloatRegIndex:64 and reg_idx:45
baseFloatRegIndex:64 and reg_idx:9
baseFloatRegIndex:64 and reg_idx:56
baseFloatRegIndex:64 and reg_idx:56
baseFloatRegIndex:64 and reg_idx:49
baseFloatRegIndex:64 and reg_idx:58
baseFloatRegIndex:64 and reg_idx:56
baseFloatRegIndex:64 and reg_idx:46
baseFloatRegIndex:64 and reg_idx:52
baseFloatRegIndex:64 and reg_idx:61
baseFloatRegIndex:64 and reg_idx:453
baseFloatRegIndex:64 and reg_idx:486
baseFloatRegIndex:64 and reg_idx:474
baseFloatRegIndex:64 and reg_idx:56
baseFloatRegIndex:64 and reg_idx:9
baseFloatRegIndex:64 and reg_idx:57
baseFloatRegIndex:64 and reg_idx:12
baseFloatRegIndex:64 and reg_idx:46
baseFloatRegIndex:64 and reg_idx:36
baseFloatRegIndex:64 and reg_idx:49
baseFloatRegIndex:64 and reg_idx:0
baseFloatRegIndex:64 and reg_idx:57
baseFloatRegIndex:64 and reg_idx:52
baseFloatRegIndex:64 and reg_idx:3
baseFloatRegIndex:64 and reg_idx:61
baseFloatRegIndex:64 and reg_idx:2
baseFloatRegIndex:64 and reg_idx:49
baseFloatRegIndex:64 and reg_idx:35
baseFloatRegIndex:64 and reg_idx:3
baseFloatRegIndex:64 and reg_idx:45
baseFloatRegIndex:64 and reg_idx:2
baseFloatRegIndex:64 and reg_idx:55
baseFloatRegIndex:64 and reg_idx:52
baseFloatRegIndex:64 and reg_idx:46
baseFloatRegIndex:64 and reg_idx:0
baseFloatRegIndex:64 and reg_idx:469
baseFloatRegIndex:64 and reg_idx:471
baseFloatRegIndex:64 and reg_idx:467
baseFloatRegIndex:64 and reg_idx:48
baseFloatRegIndex:64 and reg_idx:57
baseFloatRegIndex:64 and reg_idx:470
baseFloatRegIndex:64 and reg_idx:484
baseFloatRegIndex:64 and reg_idx:491
baseFloatRegIndex:64 and reg_idx:50
baseFloatRegIndex:64 and reg_idx:48
baseFloatRegIndex:64 and reg_idx:59
baseFloatRegIndex:64 and reg_idx:50
baseFloatRegIndex:64 and reg_idx:15
baseFloatRegIndex:64 and reg_idx:15
baseFloatRegIndex:64 and reg_idx:13
baseFloatRegIndex:64 and reg_idx:46
baseFloatRegIndex:64 and reg_idx:36
baseFloatRegIndex:64 and reg_idx:54
baseFloatRegIndex:64 and reg_idx:7
baseFloatRegIndex:64 and reg_idx:14
baseFloatRegIndex:64 and reg_idx:489
baseFloatRegIndex:64 and reg_idx:43
baseFloatRegIndex:64 and reg_idx:492
baseFloatRegIndex:64 and reg_idx:56
baseFloatRegIndex:64 and reg_idx:13
baseFloatRegIndex:64 and reg_idx:56
baseFloatRegIndex:64 and reg_idx:13
baseFloatRegIndex:64 and reg_idx:56
baseFloatRegIndex:64 and reg_idx:10
baseFloatRegIndex:64 and reg_idx:10
baseFloatRegIndex:64 and reg_idx:9
baseFloatRegIndex:64 and reg_idx:53
baseFloatRegIndex:64 and reg_idx:63
baseFloatRegIndex:64 and reg_idx:44
baseFloatRegIndex:64 and reg_idx:44
baseFloatRegIndex:64 and reg_idx:1
baseFloatRegIndex:64 and reg_idx:51
baseFloatRegIndex:64 and reg_idx:44
baseFloatRegIndex:64 and reg_idx:4
baseFloatRegIndex:64 and reg_idx:58
baseFloatRegIndex:64 and reg_idx:44
baseFloatRegIndex:64 and reg_idx:12
baseFloatRegIndex:64 and reg_idx:61
baseFloatRegIndex:64 and reg_idx:44
baseFloatRegIndex:64 and reg_idx:49
baseFloatRegIndex:64 and reg_idx:3
baseFloatRegIndex:64 and reg_idx:44
baseFloatRegIndex:64 and reg_idx:2
baseFloatRegIndex:64 and reg_idx:56
baseFloatRegIndex:64 and reg_idx:44
baseFloatRegIndex:64 and reg_idx:52
baseFloatRegIndex:64 and reg_idx:2
baseFloatRegIndex:64 and reg_idx:0
baseFloatRegIndex:64 and reg_idx:63
baseFloatRegIndex:64 and reg_idx:44
baseFloatRegIndex:64 and reg_idx:10
baseFloatRegIndex:64 and reg_idx:4
baseFloatRegIndex:64 and reg_idx:1
baseFloatRegIndex:64 and reg_idx:51
baseFloatRegIndex:64 and reg_idx:57
baseFloatRegIndex:64 and reg_idx:48
baseFloatRegIndex:64 and reg_idx:10
baseFloatRegIndex:64 and reg_idx:44
baseFloatRegIndex:64 and reg_idx:52
baseFloatRegIndex:64 and reg_idx:44
baseFloatRegIndex:64 and reg_idx:0
baseFloatRegIndex:64 and reg_idx:50
baseFloatRegIndex:64 and reg_idx:0
baseFloatRegIndex:64 and reg_idx:54
baseFloatRegIndex:64 and reg_idx:57
baseFloatRegIndex:64 and reg_idx:7
baseFloatRegIndex:64 and reg_idx:9
baseFloatRegIndex:64 and reg_idx:53
baseFloatRegIndex:64 and reg_idx:44
baseFloatRegIndex:64 and reg_idx:10
baseFloatRegIndex:64 and reg_idx:56
baseFloatRegIndex:64 and reg_idx:48
baseFloatRegIndex:64 and reg_idx:44
baseFloatRegIndex:64 and reg_idx:1
baseFloatRegIndex:64 and reg_idx:51
baseFloatRegIndex:64 and reg_idx:4
baseFloatRegIndex:64 and reg_idx:58
baseFloatRegIndex:64 and reg_idx:36
baseFloatRegIndex:64 and reg_idx:7
baseFloatRegIndex:64 and reg_idx:51
baseFloatRegIndex:64 and reg_idx:54
baseFloatRegIndex:64 and reg_idx:1
baseFloatRegIndex:64 and reg_idx:50
baseFloatRegIndex:64 and reg_idx:55
baseFloatRegIndex:64 and reg_idx:48
baseFloatRegIndex:64 and reg_idx:53
baseFloatRegIndex:64 and reg_idx:57
baseFloatRegIndex:64 and reg_idx:465
baseFloatRegIndex:64 and reg_idx:499
baseFloatRegIndex:64 and reg_idx:472
baseFloatRegIndex:64 and reg_idx:35
baseFloatRegIndex:64 and reg_idx:0
baseFloatRegIndex:64 and reg_idx:44
baseFloatRegIndex:64 and reg_idx:52
baseFloatRegIndex:64 and reg_idx:62
baseFloatRegIndex:64 and reg_idx:2
baseFloatRegIndex:64 and reg_idx:15
baseFloatRegIndex:64 and reg_idx:3
baseFloatRegIndex:64 and reg_idx:47
baseFloatRegIndex:64 and reg_idx:49
baseFloatRegIndex:64 and reg_idx:9
baseFloatRegIndex:64 and reg_idx:61
baseFloatRegIndex:64 and reg_idx:13
baseFloatRegIndex:64 and reg_idx:12
baseFloatRegIndex:64 and reg_idx:8
baseFloatRegIndex:64 and reg_idx:58
baseFloatRegIndex:64 and reg_idx:5
baseFloatRegIndex:64 and reg_idx:4
baseFloatRegIndex:64 and reg_idx:10
baseFloatRegIndex:64 and reg_idx:51
baseFloatRegIndex:64 and reg_idx:60
baseFloatRegIndex:64 and reg_idx:1
baseFloatRegIndex:64 and reg_idx:63
baseFloatRegIndex:64 and reg_idx:44
baseFloatRegIndex:64 and reg_idx:45
baseFloatRegIndex:64 and reg_idx:53
baseFloatRegIndex:64 and reg_idx:495
baseFloatRegIndex:64 and reg_idx:473
baseFloatRegIndex:64 and reg_idx:490
baseFloatRegIndex:64 and reg_idx:10
baseFloatRegIndex:64 and reg_idx:14
baseFloatRegIndex:64 and reg_idx:14
baseFloatRegIndex:64 and reg_idx:43
baseFloatRegIndex:64 and reg_idx:35
baseFloatRegIndex:64 and reg_idx:56
baseFloatRegIndex:64 and reg_idx:14
baseFloatRegIndex:64 and reg_idx:56
baseFloatRegIndex:64 and reg_idx:7
baseFloatRegIndex:64 and reg_idx:7
baseFloatRegIndex:64 and reg_idx:10
baseFloatRegIndex:64 and reg_idx:54
baseFloatRegIndex:64 and reg_idx:54
baseFloatRegIndex:64 and reg_idx:10
baseFloatRegIndex:64 and reg_idx:10
baseFloatRegIndex:64 and reg_idx:50
baseFloatRegIndex:64 and reg_idx:14
baseFloatRegIndex:64 and reg_idx:48
baseFloatRegIndex:64 and reg_idx:56
baseFloatRegIndex:64 and reg_idx:57
baseFloatRegIndex:64 and reg_idx:57
baseFloatRegIndex:64 and reg_idx:0
baseFloatRegIndex:64 and reg_idx:14
baseFloatRegIndex:64 and reg_idx:43
baseFloatRegIndex:64 and reg_idx:10
baseFloatRegIndex:64 and reg_idx:52
baseFloatRegIndex:64 and reg_idx:48
baseFloatRegIndex:64 and reg_idx:2
baseFloatRegIndex:64 and reg_idx:14
baseFloatRegIndex:64 and reg_idx:56
baseFloatRegIndex:64 and reg_idx:7
baseFloatRegIndex:64 and reg_idx:10
baseFloatRegIndex:64 and reg_idx:14
baseFloatRegIndex:64 and reg_idx:54
baseFloatRegIndex:64 and reg_idx:52
baseFloatRegIndex:64 and reg_idx:3
baseFloatRegIndex:64 and reg_idx:50
baseFloatRegIndex:64 and reg_idx:49
baseFloatRegIndex:64 and reg_idx:52
baseFloatRegIndex:64 and reg_idx:61
baseFloatRegIndex:64 and reg_idx:46
baseFloatRegIndex:64 and reg_idx:7
baseFloatRegIndex:64 and reg_idx:48
baseFloatRegIndex:64 and reg_idx:43
baseFloatRegIndex:64 and reg_idx:50
baseFloatRegIndex:64 and reg_idx:49
baseFloatRegIndex:64 and reg_idx:3
baseFloatRegIndex:64 and reg_idx:43
baseFloatRegIndex:64 and reg_idx:60
baseFloatRegIndex:64 and reg_idx:12
baseFloatRegIndex:64 and reg_idx:476
baseFloatRegIndex:64 and reg_idx:36
baseFloatRegIndex:64 and reg_idx:475
baseFloatRegIndex:64 and reg_idx:54
baseFloatRegIndex:64 and reg_idx:56
baseFloatRegIndex:64 and reg_idx:7
baseFloatRegIndex:64 and reg_idx:43
baseFloatRegIndex:64 and reg_idx:58
baseFloatRegIndex:64 and reg_idx:59
baseFloatRegIndex:64 and reg_idx:56
baseFloatRegIndex:64 and reg_idx:57
baseFloatRegIndex:64 and reg_idx:4
baseFloatRegIndex:64 and reg_idx:50
baseFloatRegIndex:64 and reg_idx:51
baseFloatRegIndex:64 and reg_idx:51
baseFloatRegIndex:64 and reg_idx:58
baseFloatRegIndex:64 and reg_idx:466
baseFloatRegIndex:64 and reg_idx:463
baseFloatRegIndex:64 and reg_idx:500
baseFloatRegIndex:64 and reg_idx:57
baseFloatRegIndex:64 and reg_idx:52
baseFloatRegIndex:64 and reg_idx:50
baseFloatRegIndex:64 and reg_idx:54
baseFloatRegIndex:64 and reg_idx:7
baseFloatRegIndex:64 and reg_idx:498
baseFloatRegIndex:64 and reg_idx:508
baseFloatRegIndex:64 and reg_idx:509
baseFloatRegIndex:64 and reg_idx:48
baseFloatRegIndex:64 and reg_idx:52
baseFloatRegIndex:64 and reg_idx:3
baseFloatRegIndex:64 and reg_idx:50
baseFloatRegIndex:64 and reg_idx:48
baseFloatRegIndex:64 and reg_idx:57
baseFloatRegIndex:64 and reg_idx:49
baseFloatRegIndex:64 and reg_idx:58
baseFloatRegIndex:64 and reg_idx:1
baseFloatRegIndex:64 and reg_idx:44
baseFloatRegIndex:64 and reg_idx:2
baseFloatRegIndex:64 and reg_idx:53
baseFloatRegIndex:64 and reg_idx:14
baseFloatRegIndex:64 and reg_idx:55
baseFloatRegIndex:64 and reg_idx:45
baseFloatRegIndex:64 and reg_idx:52
baseFloatRegIndex:64 and reg_idx:61
baseFloatRegIndex:64 and reg_idx:4
baseFloatRegIndex:64 and reg_idx:0
baseFloatRegIndex:64 and reg_idx:52
baseFloatRegIndex:64 and reg_idx:44
baseFloatRegIndex:64 and reg_idx:46
baseFloatRegIndex:64 and reg_idx:35
baseFloatRegIndex:64 and reg_idx:57
baseFloatRegIndex:64 and reg_idx:49
baseFloatRegIndex:64 and reg_idx:3
baseFloatRegIndex:64 and reg_idx:50
baseFloatRegIndex:64 and reg_idx:2
baseFloatRegIndex:64 and reg_idx:3
baseFloatRegIndex:64 and reg_idx:58
baseFloatRegIndex:64 and reg_idx:36
baseFloatRegIndex:64 and reg_idx:36
baseFloatRegIndex:64 and reg_idx:59
baseFloatRegIndex:64 and reg_idx:0
baseFloatRegIndex:64 and reg_idx:8
baseFloatRegIndex:64 and reg_idx:43
baseFloatRegIndex:64 and reg_idx:60
baseFloatRegIndex:64 and reg_idx:12
baseFloatRegIndex:64 and reg_idx:49
baseFloatRegIndex:64 and reg_idx:61
baseFloatRegIndex:64 and reg_idx:51
baseFloatRegIndex:64 and reg_idx:54
baseFloatRegIndex:64 and reg_idx:47
baseFloatRegIndex:64 and reg_idx:43
baseFloatRegIndex:64 and reg_idx:58
baseFloatRegIndex:64 and reg_idx:44
baseFloatRegIndex:64 and reg_idx:56
baseFloatRegIndex:64 and reg_idx:497
baseFloatRegIndex:64 and reg_idx:502
baseFloatRegIndex:64 and reg_idx:501
baseFloatRegIndex:64 and reg_idx:51
baseFloatRegIndex:64 and reg_idx:58
baseFloatRegIndex:64 and reg_idx:44
baseFloatRegIndex:64 and reg_idx:12
baseFloatRegIndex:64 and reg_idx:60
baseFloatRegIndex:64 and reg_idx:58
baseFloatRegIndex:64 and reg_idx:1
baseFloatRegIndex:64 and reg_idx:53
baseFloatRegIndex:64 and reg_idx:56
baseFloatRegIndex:64 and reg_idx:483
baseFloatRegIndex:64 and reg_idx:482
baseFloatRegIndex:64 and reg_idx:488
baseFloatRegIndex:64 and reg_idx:4
baseFloatRegIndex:64 and reg_idx:59
baseFloatRegIndex:64 and reg_idx:44
baseFloatRegIndex:64 and reg_idx:36
baseFloatRegIndex:64 and reg_idx:53
baseFloatRegIndex:64 and reg_idx:58
baseFloatRegIndex:64 and reg_idx:4
baseFloatRegIndex:64 and reg_idx:51
baseFloatRegIndex:64 and reg_idx:12
baseFloatRegIndex:64 and reg_idx:43
baseFloatRegIndex:64 and reg_idx:49
baseFloatRegIndex:64 and reg_idx:485
baseFloatRegIndex:64 and reg_idx:487
baseFloatRegIndex:64 and reg_idx:477
baseFloatRegIndex:64 and reg_idx:1
baseFloatRegIndex:64 and reg_idx:44
baseFloatRegIndex:64 and reg_idx:52
baseFloatRegIndex:64 and reg_idx:51
baseFloatRegIndex:64 and reg_idx:53
baseFloatRegIndex:64 and reg_idx:46
baseFloatRegIndex:64 and reg_idx:48
baseFloatRegIndex:64 and reg_idx:2
baseFloatRegIndex:64 and reg_idx:50
baseFloatRegIndex:64 and reg_idx:7
baseFloatRegIndex:64 and reg_idx:7
baseFloatRegIndex:64 and reg_idx:1
baseFloatRegIndex:64 and reg_idx:14
baseFloatRegIndex:64 and reg_idx:50
baseFloatRegIndex:64 and reg_idx:4
baseFloatRegIndex:64 and reg_idx:14
baseFloatRegIndex:64 and reg_idx:55
baseFloatRegIndex:64 and reg_idx:50
baseFloatRegIndex:64 and reg_idx:7
baseFloatRegIndex:64 and reg_idx:7
baseFloatRegIndex:64 and reg_idx:1
baseFloatRegIndex:64 and reg_idx:14
baseFloatRegIndex:64 and reg_idx:7
baseFloatRegIndex:64 and reg_idx:44
baseFloatRegIndex:64 and reg_idx:14
baseFloatRegIndex:64 and reg_idx:7
baseFloatRegIndex:64 and reg_idx:468
baseFloatRegIndex:64 and reg_idx:503
baseFloatRegIndex:64 and reg_idx:479
baseFloatRegIndex:64 and reg_idx:50
baseFloatRegIndex:64 and reg_idx:4
baseFloatRegIndex:64 and reg_idx:55
baseFloatRegIndex:64 and reg_idx:55
baseFloatRegIndex:64 and reg_idx:14
baseFloatRegIndex:64 and reg_idx:55
baseFloatRegIndex:64 and reg_idx:55
baseFloatRegIndex:64 and reg_idx:45
baseFloatRegIndex:64 and reg_idx:53
baseFloatRegIndex:64 and reg_idx:35
baseFloatRegIndex:64 and reg_idx:55
baseFloatRegIndex:64 and reg_idx:55
baseFloatRegIndex:64 and reg_idx:45
baseFloatRegIndex:64 and reg_idx:53
baseFloatRegIndex:64 and reg_idx:5
baseFloatRegIndex:64 and reg_idx:58
baseFloatRegIndex:64 and reg_idx:10
baseFloatRegIndex:64 and reg_idx:57
baseFloatRegIndex:64 and reg_idx:45
baseFloatRegIndex:64 and reg_idx:57
baseFloatRegIndex:64 and reg_idx:529
baseFloatRegIndex:64 and reg_idx:539
baseFloatRegIndex:64 and reg_idx:506
baseFloatRegIndex:64 and reg_idx:45
baseFloatRegIndex:64 and reg_idx:493
baseFloatRegIndex:64 and reg_idx:494
baseFloatRegIndex:64 and reg_idx:1
baseFloatRegIndex:64 and reg_idx:547
baseFloatRegIndex:64 and reg_idx:481
baseFloatRegIndex:64 and reg_idx:546
baseFloatRegIndex:64 and reg_idx:35
baseFloatRegIndex:64 and reg_idx:58
baseFloatRegIndex:64 and reg_idx:0
baseFloatRegIndex:64 and reg_idx:0
baseFloatRegIndex:64 and reg_idx:8
baseFloatRegIndex:64 and reg_idx:46
baseFloatRegIndex:64 and reg_idx:54
baseFloatRegIndex:64 and reg_idx:58
baseFloatRegIndex:64 and reg_idx:0
baseFloatRegIndex:64 and reg_idx:0
baseFloatRegIndex:64 and reg_idx:8
baseFloatRegIndex:64 and reg_idx:54
baseFloatRegIndex:64 and reg_idx:0
baseFloatRegIndex:64 and reg_idx:55
baseFloatRegIndex:64 and reg_idx:53
baseFloatRegIndex:64 and reg_idx:54
baseFloatRegIndex:64 and reg_idx:8
baseFloatRegIndex:64 and reg_idx:4
baseFloatRegIndex:64 and reg_idx:505
baseFloatRegIndex:64 and reg_idx:510
baseFloatRegIndex:64 and reg_idx:504
baseFloatRegIndex:64 and reg_idx:10
baseFloatRegIndex:64 and reg_idx:47
baseFloatRegIndex:64 and reg_idx:8
baseFloatRegIndex:64 and reg_idx:60
baseFloatRegIndex:64 and reg_idx:56
baseFloatRegIndex:64 and reg_idx:8
baseFloatRegIndex:64 and reg_idx:60
baseFloatRegIndex:64 and reg_idx:56
baseFloatRegIndex:64 and reg_idx:10
baseFloatRegIndex:64 and reg_idx:47
baseFloatRegIndex:64 and reg_idx:47
baseFloatRegIndex:64 and reg_idx:60
baseFloatRegIndex:64 and reg_idx:56
baseFloatRegIndex:64 and reg_idx:0
baseFloatRegIndex:64 and reg_idx:58
baseFloatRegIndex:64 and reg_idx:50
baseFloatRegIndex:64 and reg_idx:56
baseFloatRegIndex:64 and reg_idx:47
baseFloatRegIndex:64 and reg_idx:3
baseFloatRegIndex:64 and reg_idx:47
baseFloatRegIndex:64 and reg_idx:15
baseFloatRegIndex:64 and reg_idx:59
baseFloatRegIndex:64 and reg_idx:59
baseFloatRegIndex:64 and reg_idx:10
baseFloatRegIndex:64 and reg_idx:36
baseFloatRegIndex:64 and reg_idx:36
baseFloatRegIndex:64 and reg_idx:12
baseFloatRegIndex:64 and reg_idx:15
baseFloatRegIndex:64 and reg_idx:47
baseFloatRegIndex:64 and reg_idx:56
baseFloatRegIndex:64 and reg_idx:10
baseFloatRegIndex:64 and reg_idx:43
baseFloatRegIndex:64 and reg_idx:10
baseFloatRegIndex:64 and reg_idx:49
baseFloatRegIndex:64 and reg_idx:12
baseFloatRegIndex:64 and reg_idx:52
baseFloatRegIndex:64 and reg_idx:47
baseFloatRegIndex:64 and reg_idx:3
baseFloatRegIndex:64 and reg_idx:59
baseFloatRegIndex:64 and reg_idx:35
baseFloatRegIndex:64 and reg_idx:51
baseFloatRegIndex:64 and reg_idx:12
baseFloatRegIndex:64 and reg_idx:10
baseFloatRegIndex:64 and reg_idx:43
baseFloatRegIndex:64 and reg_idx:48
baseFloatRegIndex:64 and reg_idx:60
baseFloatRegIndex:64 and reg_idx:59
baseFloatRegIndex:64 and reg_idx:36
baseFloatRegIndex:64 and reg_idx:10
baseFloatRegIndex:64 and reg_idx:13
baseFloatRegIndex:64 and reg_idx:10
baseFloatRegIndex:64 and reg_idx:59
baseFloatRegIndex:64 and reg_idx:10
baseFloatRegIndex:64 and reg_idx:2
baseFloatRegIndex:64 and reg_idx:2
baseFloatRegIndex:64 and reg_idx:47
baseFloatRegIndex:64 and reg_idx:36
baseFloatRegIndex:64 and reg_idx:60
baseFloatRegIndex:64 and reg_idx:43
baseFloatRegIndex:64 and reg_idx:9
baseFloatRegIndex:64 and reg_idx:44
baseFloatRegIndex:64 and reg_idx:538
baseFloatRegIndex:64 and reg_idx:537
baseFloatRegIndex:64 and reg_idx:536
baseFloatRegIndex:64 and reg_idx:10
baseFloatRegIndex:64 and reg_idx:49
baseFloatRegIndex:64 and reg_idx:36
baseFloatRegIndex:64 and reg_idx:63
baseFloatRegIndex:64 and reg_idx:7
baseFloatRegIndex:64 and reg_idx:7
baseFloatRegIndex:64 and reg_idx:14
baseFloatRegIndex:64 and reg_idx:57
baseFloatRegIndex:64 and reg_idx:7
baseFloatRegIndex:64 and reg_idx:1
baseFloatRegIndex:64 and reg_idx:46
baseFloatRegIndex:64 and reg_idx:45
baseFloatRegIndex:64 and reg_idx:12
baseFloatRegIndex:64 and reg_idx:52
baseFloatRegIndex:64 and reg_idx:51
baseFloatRegIndex:64 and reg_idx:10
baseFloatRegIndex:64 and reg_idx:13
baseFloatRegIndex:64 and reg_idx:3
baseFloatRegIndex:64 and reg_idx:46
baseFloatRegIndex:64 and reg_idx:5
baseFloatRegIndex:64 and reg_idx:1
baseFloatRegIndex:64 and reg_idx:2
baseFloatRegIndex:64 and reg_idx:57
baseFloatRegIndex:64 and reg_idx:60
baseFloatRegIndex:64 and reg_idx:14
baseFloatRegIndex:64 and reg_idx:63
baseFloatRegIndex:64 and reg_idx:7
baseFloatRegIndex:64 and reg_idx:49
baseFloatRegIndex:64 and reg_idx:44
baseFloatRegIndex:64 and reg_idx:545
baseFloatRegIndex:64 and reg_idx:533
baseFloatRegIndex:64 and reg_idx:535
baseFloatRegIndex:64 and reg_idx:10
baseFloatRegIndex:64 and reg_idx:2
baseFloatRegIndex:64 and reg_idx:548
baseFloatRegIndex:64 and reg_idx:542
baseFloatRegIndex:64 and reg_idx:534
baseFloatRegIndex:64 and reg_idx:35
baseFloatRegIndex:64 and reg_idx:48
baseFloatRegIndex:64 and reg_idx:53
baseFloatRegIndex:64 and reg_idx:51
baseFloatRegIndex:64 and reg_idx:56
baseFloatRegIndex:64 and reg_idx:52
baseFloatRegIndex:64 and reg_idx:36
baseFloatRegIndex:64 and reg_idx:49
baseFloatRegIndex:64 and reg_idx:59
baseFloatRegIndex:64 and reg_idx:43
baseFloatRegIndex:64 and reg_idx:8
baseFloatRegIndex:64 and reg_idx:12
baseFloatRegIndex:64 and reg_idx:544
baseFloatRegIndex:64 and reg_idx:523
baseFloatRegIndex:64 and reg_idx:35
baseFloatRegIndex:64 and reg_idx:55
baseFloatRegIndex:64 and reg_idx:10
baseFloatRegIndex:64 and reg_idx:54
baseFloatRegIndex:64 and reg_idx:10
baseFloatRegIndex:64 and reg_idx:55
baseFloatRegIndex:64 and reg_idx:54
baseFloatRegIndex:64 and reg_idx:55
baseFloatRegIndex:64 and reg_idx:59
baseFloatRegIndex:64 and reg_idx:54
baseFloatRegIndex:64 and reg_idx:8
baseFloatRegIndex:64 and reg_idx:55
baseFloatRegIndex:64 and reg_idx:4
baseFloatRegIndex:64 and reg_idx:10
baseFloatRegIndex:64 and reg_idx:0
baseFloatRegIndex:64 and reg_idx:10
baseFloatRegIndex:64 and reg_idx:54
baseFloatRegIndex:64 and reg_idx:10
baseFloatRegIndex:64 and reg_idx:4
baseFloatRegIndex:64 and reg_idx:10
baseFloatRegIndex:64 and reg_idx:54
baseFloatRegIndex:64 and reg_idx:55
baseFloatRegIndex:64 and reg_idx:10
baseFloatRegIndex:64 and reg_idx:4
baseFloatRegIndex:64 and reg_idx:0
baseFloatRegIndex:64 and reg_idx:10
baseFloatRegIndex:64 and reg_idx:4
baseFloatRegIndex:64 and reg_idx:4
baseFloatRegIndex:64 and reg_idx:56
baseFloatRegIndex:64 and reg_idx:0
baseFloatRegIndex:64 and reg_idx:55
baseFloatRegIndex:64 and reg_idx:36
baseFloatRegIndex:64 and reg_idx:58
baseFloatRegIndex:64 and reg_idx:10
baseFloatRegIndex:64 and reg_idx:58
baseFloatRegIndex:64 and reg_idx:35
baseFloatRegIndex:64 and reg_idx:50
baseFloatRegIndex:64 and reg_idx:0
baseFloatRegIndex:64 and reg_idx:54
baseFloatRegIndex:64 and reg_idx:47
baseFloatRegIndex:64 and reg_idx:10
baseFloatRegIndex:64 and reg_idx:47
baseFloatRegIndex:64 and reg_idx:50
baseFloatRegIndex:64 and reg_idx:10
baseFloatRegIndex:64 and reg_idx:36
baseFloatRegIndex:64 and reg_idx:58
baseFloatRegIndex:64 and reg_idx:0
baseFloatRegIndex:64 and reg_idx:54
baseFloatRegIndex:64 and reg_idx:47
baseFloatRegIndex:64 and reg_idx:10
baseFloatRegIndex:64 and reg_idx:58
baseFloatRegIndex:64 and reg_idx:58
baseFloatRegIndex:64 and reg_idx:50
baseFloatRegIndex:64 and reg_idx:4
baseFloatRegIndex:64 and reg_idx:10
baseFloatRegIndex:64 and reg_idx:47
baseFloatRegIndex:64 and reg_idx:50
baseFloatRegIndex:64 and reg_idx:10
baseFloatRegIndex:64 and reg_idx:50
baseFloatRegIndex:64 and reg_idx:47
baseFloatRegIndex:64 and reg_idx:45
baseFloatRegIndex:64 and reg_idx:58
baseFloatRegIndex:64 and reg_idx:0
baseFloatRegIndex:64 and reg_idx:10
baseFloatRegIndex:64 and reg_idx:46
baseFloatRegIndex:64 and reg_idx:10
baseFloatRegIndex:64 and reg_idx:1
baseFloatRegIndex:64 and reg_idx:45
baseFloatRegIndex:64 and reg_idx:57
baseFloatRegIndex:64 and reg_idx:35
baseFloatRegIndex:64 and reg_idx:14
baseFloatRegIndex:64 and reg_idx:45
baseFloatRegIndex:64 and reg_idx:46
baseFloatRegIndex:64 and reg_idx:7
baseFloatRegIndex:64 and reg_idx:60
baseFloatRegIndex:64 and reg_idx:10
baseFloatRegIndex:64 and reg_idx:1
baseFloatRegIndex:64 and reg_idx:45
baseFloatRegIndex:64 and reg_idx:57
baseFloatRegIndex:64 and reg_idx:10
baseFloatRegIndex:64 and reg_idx:13
baseFloatRegIndex:64 and reg_idx:14
baseFloatRegIndex:64 and reg_idx:10
baseFloatRegIndex:64 and reg_idx:45
baseFloatRegIndex:64 and reg_idx:10
baseFloatRegIndex:64 and reg_idx:44
baseFloatRegIndex:64 and reg_idx:44
baseFloatRegIndex:64 and reg_idx:54
baseFloatRegIndex:64 and reg_idx:60
baseFloatRegIndex:64 and reg_idx:46
baseFloatRegIndex:64 and reg_idx:9
baseFloatRegIndex:64 and reg_idx:2
baseFloatRegIndex:64 and reg_idx:63
baseFloatRegIndex:64 and reg_idx:48
baseFloatRegIndex:64 and reg_idx:48
baseFloatRegIndex:64 and reg_idx:51
baseFloatRegIndex:64 and reg_idx:52
baseFloatRegIndex:64 and reg_idx:48
baseFloatRegIndex:64 and reg_idx:49
baseFloatRegIndex:64 and reg_idx:43
baseFloatRegIndex:64 and reg_idx:10
baseFloatRegIndex:64 and reg_idx:13
baseFloatRegIndex:64 and reg_idx:3
baseFloatRegIndex:64 and reg_idx:43
baseFloatRegIndex:64 and reg_idx:5
baseFloatRegIndex:64 and reg_idx:49
baseFloatRegIndex:64 and reg_idx:44
baseFloatRegIndex:64 and reg_idx:52
baseFloatRegIndex:64 and reg_idx:60
baseFloatRegIndex:64 and reg_idx:51
baseFloatRegIndex:64 and reg_idx:63
baseFloatRegIndex:64 and reg_idx:48
baseFloatRegIndex:64 and reg_idx:1
baseFloatRegIndex:64 and reg_idx:2
baseFloatRegIndex:64 and reg_idx:559
baseFloatRegIndex:64 and reg_idx:478
baseFloatRegIndex:64 and reg_idx:496
baseFloatRegIndex:64 and reg_idx:10
baseFloatRegIndex:64 and reg_idx:44
baseFloatRegIndex:64 and reg_idx:46
baseFloatRegIndex:64 and reg_idx:46
baseFloatRegIndex:64 and reg_idx:1
baseFloatRegIndex:64 and reg_idx:57
baseFloatRegIndex:64 and reg_idx:14
baseFloatRegIndex:64 and reg_idx:47
baseFloatRegIndex:64 and reg_idx:36
baseFloatRegIndex:64 and reg_idx:50
baseFloatRegIndex:64 and reg_idx:53
baseFloatRegIndex:64 and reg_idx:541
baseFloatRegIndex:64 and reg_idx:549
baseFloatRegIndex:64 and reg_idx:540
baseFloatRegIndex:64 and reg_idx:7
baseFloatRegIndex:64 and reg_idx:35
baseFloatRegIndex:64 and reg_idx:60
baseFloatRegIndex:64 and reg_idx:63
baseFloatRegIndex:64 and reg_idx:14
baseFloatRegIndex:64 and reg_idx:63
baseFloatRegIndex:64 and reg_idx:63
baseFloatRegIndex:64 and reg_idx:12
baseFloatRegIndex:64 and reg_idx:1
baseFloatRegIndex:64 and reg_idx:59
baseFloatRegIndex:64 and reg_idx:63
baseFloatRegIndex:64 and reg_idx:12
baseFloatRegIndex:64 and reg_idx:1
baseFloatRegIndex:64 and reg_idx:59
baseFloatRegIndex:64 and reg_idx:63
baseFloatRegIndex:64 and reg_idx:60
baseFloatRegIndex:64 and reg_idx:63
baseFloatRegIndex:64 and reg_idx:14
baseFloatRegIndex:64 and reg_idx:12
baseFloatRegIndex:64 and reg_idx:59
baseFloatRegIndex:64 and reg_idx:63
baseFloatRegIndex:64 and reg_idx:60
baseFloatRegIndex:64 and reg_idx:8
baseFloatRegIndex:64 and reg_idx:8
baseFloatRegIndex:64 and reg_idx:8
baseFloatRegIndex:64 and reg_idx:14
baseFloatRegIndex:64 and reg_idx:59
baseFloatRegIndex:64 and reg_idx:12
baseFloatRegIndex:64 and reg_idx:10
baseFloatRegIndex:64 and reg_idx:12
baseFloatRegIndex:64 and reg_idx:5
baseFloatRegIndex:64 and reg_idx:12
baseFloatRegIndex:64 and reg_idx:8
baseFloatRegIndex:64 and reg_idx:12
baseFloatRegIndex:64 and reg_idx:12
baseFloatRegIndex:64 and reg_idx:56
baseFloatRegIndex:64 and reg_idx:1
baseFloatRegIndex:64 and reg_idx:55
baseFloatRegIndex:64 and reg_idx:1
baseFloatRegIndex:64 and reg_idx:4
baseFloatRegIndex:64 and reg_idx:45
baseFloatRegIndex:64 and reg_idx:58
baseFloatRegIndex:64 and reg_idx:57
baseFloatRegIndex:64 and reg_idx:0
baseFloatRegIndex:64 and reg_idx:7
baseFloatRegIndex:64 and reg_idx:54
baseFloatRegIndex:64 and reg_idx:12
baseFloatRegIndex:64 and reg_idx:56
baseFloatRegIndex:64 and reg_idx:12
baseFloatRegIndex:64 and reg_idx:59
baseFloatRegIndex:64 and reg_idx:55
baseFloatRegIndex:64 and reg_idx:43
baseFloatRegIndex:64 and reg_idx:1
baseFloatRegIndex:64 and reg_idx:4
baseFloatRegIndex:64 and reg_idx:1
baseFloatRegIndex:64 and reg_idx:12
baseFloatRegIndex:64 and reg_idx:10
baseFloatRegIndex:64 and reg_idx:45
baseFloatRegIndex:64 and reg_idx:58
baseFloatRegIndex:64 and reg_idx:57
baseFloatRegIndex:64 and reg_idx:0
baseFloatRegIndex:64 and reg_idx:12
baseFloatRegIndex:64 and reg_idx:5
baseFloatRegIndex:64 and reg_idx:55
baseFloatRegIndex:64 and reg_idx:54
baseFloatRegIndex:64 and reg_idx:12
baseFloatRegIndex:64 and reg_idx:8
baseFloatRegIndex:64 and reg_idx:55
baseFloatRegIndex:64 and reg_idx:56
baseFloatRegIndex:64 and reg_idx:55
baseFloatRegIndex:64 and reg_idx:4
baseFloatRegIndex:64 and reg_idx:58
baseFloatRegIndex:64 and reg_idx:0
baseFloatRegIndex:64 and reg_idx:54
baseFloatRegIndex:64 and reg_idx:12
baseFloatRegIndex:64 and reg_idx:46
baseFloatRegIndex:64 and reg_idx:59
baseFloatRegIndex:64 and reg_idx:10
baseFloatRegIndex:64 and reg_idx:5
baseFloatRegIndex:64 and reg_idx:8
baseFloatRegIndex:64 and reg_idx:43
baseFloatRegIndex:64 and reg_idx:7
baseFloatRegIndex:64 and reg_idx:1
baseFloatRegIndex:64 and reg_idx:49
baseFloatRegIndex:64 and reg_idx:1
baseFloatRegIndex:64 and reg_idx:52
baseFloatRegIndex:64 and reg_idx:4
baseFloatRegIndex:64 and reg_idx:56
baseFloatRegIndex:64 and reg_idx:58
baseFloatRegIndex:64 and reg_idx:56
baseFloatRegIndex:64 and reg_idx:54
baseFloatRegIndex:64 and reg_idx:56
baseFloatRegIndex:64 and reg_idx:56
baseFloatRegIndex:64 and reg_idx:51
baseFloatRegIndex:64 and reg_idx:49
baseFloatRegIndex:64 and reg_idx:52
baseFloatRegIndex:64 and reg_idx:56
baseFloatRegIndex:64 and reg_idx:51
baseFloatRegIndex:64 and reg_idx:56
baseFloatRegIndex:64 and reg_idx:4
baseFloatRegIndex:64 and reg_idx:1
baseFloatRegIndex:64 and reg_idx:56
baseFloatRegIndex:64 and reg_idx:58
baseFloatRegIndex:64 and reg_idx:1
baseFloatRegIndex:64 and reg_idx:49
baseFloatRegIndex:64 and reg_idx:56
baseFloatRegIndex:64 and reg_idx:54
baseFloatRegIndex:64 and reg_idx:52
baseFloatRegIndex:64 and reg_idx:49
baseFloatRegIndex:64 and reg_idx:52
baseFloatRegIndex:64 and reg_idx:49
baseFloatRegIndex:64 and reg_idx:57
baseFloatRegIndex:64 and reg_idx:52
baseFloatRegIndex:64 and reg_idx:51
baseFloatRegIndex:64 and reg_idx:45
baseFloatRegIndex:64 and reg_idx:56
baseFloatRegIndex:64 and reg_idx:532
baseFloatRegIndex:64 and reg_idx:521
baseFloatRegIndex:64 and reg_idx:522
baseFloatRegIndex:64 and reg_idx:51
baseFloatRegIndex:64 and reg_idx:48
baseFloatRegIndex:64 and reg_idx:1
baseFloatRegIndex:64 and reg_idx:2
baseFloatRegIndex:64 and reg_idx:2
baseFloatRegIndex:64 and reg_idx:44
baseFloatRegIndex:64 and reg_idx:47
baseFloatRegIndex:64 and reg_idx:51
baseFloatRegIndex:64 and reg_idx:48
baseFloatRegIndex:64 and reg_idx:1
baseFloatRegIndex:64 and reg_idx:2
baseFloatRegIndex:64 and reg_idx:2
baseFloatRegIndex:64 and reg_idx:48
baseFloatRegIndex:64 and reg_idx:2
baseFloatRegIndex:64 and reg_idx:51
baseFloatRegIndex:64 and reg_idx:58
baseFloatRegIndex:64 and reg_idx:44
baseFloatRegIndex:64 and reg_idx:47
baseFloatRegIndex:64 and reg_idx:44
baseFloatRegIndex:64 and reg_idx:47
baseFloatRegIndex:64 and reg_idx:49
baseFloatRegIndex:64 and reg_idx:55
baseFloatRegIndex:64 and reg_idx:44
baseFloatRegIndex:64 and reg_idx:47
baseFloatRegIndex:64 and reg_idx:36
baseFloatRegIndex:64 and reg_idx:50
baseFloatRegIndex:64 and reg_idx:53
baseFloatRegIndex:64 and reg_idx:44
baseFloatRegIndex:64 and reg_idx:47
baseFloatRegIndex:64 and reg_idx:36
baseFloatRegIndex:64 and reg_idx:50
baseFloatRegIndex:64 and reg_idx:53
baseFloatRegIndex:64 and reg_idx:36
baseFloatRegIndex:64 and reg_idx:44
baseFloatRegIndex:64 and reg_idx:507
baseFloatRegIndex:64 and reg_idx:514
baseFloatRegIndex:64 and reg_idx:526
baseFloatRegIndex:64 and reg_idx:50
baseFloatRegIndex:64 and reg_idx:53
baseFloatRegIndex:64 and reg_idx:1
baseFloatRegIndex:64 and reg_idx:47
baseFloatRegIndex:64 and reg_idx:35
baseFloatRegIndex:64 and reg_idx:2
baseFloatRegIndex:64 and reg_idx:53
baseFloatRegIndex:64 and reg_idx:2
baseFloatRegIndex:64 and reg_idx:35
baseFloatRegIndex:64 and reg_idx:48
baseFloatRegIndex:64 and reg_idx:63
baseFloatRegIndex:64 and reg_idx:63
baseFloatRegIndex:64 and reg_idx:60
baseFloatRegIndex:64 and reg_idx:14
baseFloatRegIndex:64 and reg_idx:63
baseFloatRegIndex:64 and reg_idx:12
baseFloatRegIndex:64 and reg_idx:63
baseFloatRegIndex:64 and reg_idx:46
baseFloatRegIndex:64 and reg_idx:35
baseFloatRegIndex:64 and reg_idx:12
baseFloatRegIndex:64 and reg_idx:59
baseFloatRegIndex:64 and reg_idx:48
baseFloatRegIndex:64 and reg_idx:63
baseFloatRegIndex:64 and reg_idx:2
baseFloatRegIndex:64 and reg_idx:53
baseFloatRegIndex:64 and reg_idx:50
baseFloatRegIndex:64 and reg_idx:50
baseFloatRegIndex:64 and reg_idx:60
baseFloatRegIndex:64 and reg_idx:10
baseFloatRegIndex:64 and reg_idx:10
baseFloatRegIndex:64 and reg_idx:53
baseFloatRegIndex:64 and reg_idx:5
baseFloatRegIndex:64 and reg_idx:63
baseFloatRegIndex:64 and reg_idx:46
baseFloatRegIndex:64 and reg_idx:2
baseFloatRegIndex:64 and reg_idx:35
baseFloatRegIndex:64 and reg_idx:35
baseFloatRegIndex:64 and reg_idx:10
baseFloatRegIndex:64 and reg_idx:8
baseFloatRegIndex:64 and reg_idx:10
baseFloatRegIndex:64 and reg_idx:5
baseFloatRegIndex:64 and reg_idx:10
baseFloatRegIndex:64 and reg_idx:5
baseFloatRegIndex:64 and reg_idx:4
baseFloatRegIndex:64 and reg_idx:63
baseFloatRegIndex:64 and reg_idx:10
baseFloatRegIndex:64 and reg_idx:5
baseFloatRegIndex:64 and reg_idx:50
baseFloatRegIndex:64 and reg_idx:63
baseFloatRegIndex:64 and reg_idx:63
baseFloatRegIndex:64 and reg_idx:60
baseFloatRegIndex:64 and reg_idx:14
baseFloatRegIndex:64 and reg_idx:10
baseFloatRegIndex:64 and reg_idx:5
baseFloatRegIndex:64 and reg_idx:10
baseFloatRegIndex:64 and reg_idx:5
baseFloatRegIndex:64 and reg_idx:10
baseFloatRegIndex:64 and reg_idx:5
baseFloatRegIndex:64 and reg_idx:48
baseFloatRegIndex:64 and reg_idx:12
baseFloatRegIndex:64 and reg_idx:46
baseFloatRegIndex:64 and reg_idx:7
baseFloatRegIndex:64 and reg_idx:57
baseFloatRegIndex:64 and reg_idx:46
baseFloatRegIndex:64 and reg_idx:45
baseFloatRegIndex:64 and reg_idx:57
baseFloatRegIndex:64 and reg_idx:56
baseFloatRegIndex:64 and reg_idx:50
baseFloatRegIndex:64 and reg_idx:10
baseFloatRegIndex:64 and reg_idx:8
baseFloatRegIndex:64 and reg_idx:7
baseFloatRegIndex:64 and reg_idx:51
baseFloatRegIndex:64 and reg_idx:12
baseFloatRegIndex:64 and reg_idx:10
baseFloatRegIndex:64 and reg_idx:8
baseFloatRegIndex:64 and reg_idx:60
baseFloatRegIndex:64 and reg_idx:14
baseFloatRegIndex:64 and reg_idx:45
baseFloatRegIndex:64 and reg_idx:58
baseFloatRegIndex:64 and reg_idx:49
baseFloatRegIndex:64 and reg_idx:35
baseFloatRegIndex:64 and reg_idx:2
baseFloatRegIndex:64 and reg_idx:46
baseFloatRegIndex:64 and reg_idx:45
baseFloatRegIndex:64 and reg_idx:10
baseFloatRegIndex:64 and reg_idx:53
baseFloatRegIndex:64 and reg_idx:5
baseFloatRegIndex:64 and reg_idx:14
baseFloatRegIndex:64 and reg_idx:49
baseFloatRegIndex:64 and reg_idx:7
baseFloatRegIndex:64 and reg_idx:58
baseFloatRegIndex:64 and reg_idx:8
baseFloatRegIndex:64 and reg_idx:51
baseFloatRegIndex:64 and reg_idx:515
baseFloatRegIndex:64 and reg_idx:554
baseFloatRegIndex:64 and reg_idx:587
baseFloatRegIndex:64 and reg_idx:59
baseFloatRegIndex:64 and reg_idx:56
baseFloatRegIndex:64 and reg_idx:46
baseFloatRegIndex:64 and reg_idx:45
baseFloatRegIndex:64 and reg_idx:12
baseFloatRegIndex:64 and reg_idx:57
baseFloatRegIndex:64 and reg_idx:10
baseFloatRegIndex:64 and reg_idx:7
baseFloatRegIndex:64 and reg_idx:50
baseFloatRegIndex:64 and reg_idx:8
baseFloatRegIndex:64 and reg_idx:53
baseFloatRegIndex:64 and reg_idx:5
baseFloatRegIndex:64 and reg_idx:60
baseFloatRegIndex:64 and reg_idx:10
baseFloatRegIndex:64 and reg_idx:588
baseFloatRegIndex:64 and reg_idx:567
baseFloatRegIndex:64 and reg_idx:552
baseFloatRegIndex:64 and reg_idx:12
baseFloatRegIndex:64 and reg_idx:46
baseFloatRegIndex:64 and reg_idx:59
baseFloatRegIndex:64 and reg_idx:62
baseFloatRegIndex:64 and reg_idx:63
baseFloatRegIndex:64 and reg_idx:43
baseFloatRegIndex:64 and reg_idx:50
baseFloatRegIndex:64 and reg_idx:60
baseFloatRegIndex:64 and reg_idx:55
baseFloatRegIndex:64 and reg_idx:0
baseFloatRegIndex:64 and reg_idx:50
baseFloatRegIndex:64 and reg_idx:14
baseFloatRegIndex:64 and reg_idx:50
baseFloatRegIndex:64 and reg_idx:44
baseFloatRegIndex:64 and reg_idx:44
baseFloatRegIndex:64 and reg_idx:1
baseFloatRegIndex:64 and reg_idx:60
baseFloatRegIndex:64 and reg_idx:55
baseFloatRegIndex:64 and reg_idx:55
baseFloatRegIndex:64 and reg_idx:47
baseFloatRegIndex:64 and reg_idx:14
baseFloatRegIndex:64 and reg_idx:4
baseFloatRegIndex:64 and reg_idx:0
baseFloatRegIndex:64 and reg_idx:47
baseFloatRegIndex:64 and reg_idx:48
baseFloatRegIndex:64 and reg_idx:14
baseFloatRegIndex:64 and reg_idx:0
baseFloatRegIndex:64 and reg_idx:35
baseFloatRegIndex:64 and reg_idx:553
baseFloatRegIndex:64 and reg_idx:527
baseFloatRegIndex:64 and reg_idx:525
baseFloatRegIndex:64 and reg_idx:14
baseFloatRegIndex:64 and reg_idx:55
baseFloatRegIndex:64 and reg_idx:55
baseFloatRegIndex:64 and reg_idx:48
baseFloatRegIndex:64 and reg_idx:1
baseFloatRegIndex:64 and reg_idx:2
baseFloatRegIndex:64 and reg_idx:55
baseFloatRegIndex:64 and reg_idx:49
baseFloatRegIndex:64 and reg_idx:60
baseFloatRegIndex:64 and reg_idx:50
baseFloatRegIndex:64 and reg_idx:44
baseFloatRegIndex:64 and reg_idx:58
baseFloatRegIndex:64 and reg_idx:555
baseFloatRegIndex:64 and reg_idx:563
baseFloatRegIndex:64 and reg_idx:519
baseFloatRegIndex:64 and reg_idx:1
baseFloatRegIndex:64 and reg_idx:14
baseFloatRegIndex:64 and reg_idx:4
baseFloatRegIndex:64 and reg_idx:55
baseFloatRegIndex:64 and reg_idx:54
baseFloatRegIndex:64 and reg_idx:58
baseFloatRegIndex:64 and reg_idx:1
baseFloatRegIndex:64 and reg_idx:49
baseFloatRegIndex:64 and reg_idx:48
baseFloatRegIndex:64 and reg_idx:2
baseFloatRegIndex:64 and reg_idx:36
baseFloatRegIndex:64 and reg_idx:35
baseFloatRegIndex:64 and reg_idx:47
baseFloatRegIndex:64 and reg_idx:48
baseFloatRegIndex:64 and reg_idx:52
baseFloatRegIndex:64 and reg_idx:4
baseFloatRegIndex:64 and reg_idx:53
baseFloatRegIndex:64 and reg_idx:47
baseFloatRegIndex:64 and reg_idx:44
baseFloatRegIndex:64 and reg_idx:562
baseFloatRegIndex:64 and reg_idx:520
baseFloatRegIndex:64 and reg_idx:528
baseFloatRegIndex:64 and reg_idx:50
baseFloatRegIndex:64 and reg_idx:1
baseFloatRegIndex:64 and reg_idx:44
baseFloatRegIndex:64 and reg_idx:55
baseFloatRegIndex:64 and reg_idx:51
baseFloatRegIndex:64 and reg_idx:55
baseFloatRegIndex:64 and reg_idx:56
baseFloatRegIndex:64 and reg_idx:51
baseFloatRegIndex:64 and reg_idx:45
baseFloatRegIndex:64 and reg_idx:55
baseFloatRegIndex:64 and reg_idx:57
baseFloatRegIndex:64 and reg_idx:56
baseFloatRegIndex:64 and reg_idx:45
baseFloatRegIndex:64 and reg_idx:56
baseFloatRegIndex:64 and reg_idx:7
baseFloatRegIndex:64 and reg_idx:55
baseFloatRegIndex:64 and reg_idx:8
baseFloatRegIndex:64 and reg_idx:5
baseFloatRegIndex:64 and reg_idx:55
baseFloatRegIndex:64 and reg_idx:56
baseFloatRegIndex:64 and reg_idx:10
baseFloatRegIndex:64 and reg_idx:55
baseFloatRegIndex:64 and reg_idx:57
baseFloatRegIndex:64 and reg_idx:56
baseFloatRegIndex:64 and reg_idx:7
baseFloatRegIndex:64 and reg_idx:55
baseFloatRegIndex:64 and reg_idx:55
baseFloatRegIndex:64 and reg_idx:8
baseFloatRegIndex:64 and reg_idx:5
baseFloatRegIndex:64 and reg_idx:51
baseFloatRegIndex:64 and reg_idx:10
baseFloatRegIndex:64 and reg_idx:51
baseFloatRegIndex:64 and reg_idx:45
baseFloatRegIndex:64 and reg_idx:51
baseFloatRegIndex:64 and reg_idx:56
baseFloatRegIndex:64 and reg_idx:53
baseFloatRegIndex:64 and reg_idx:52
baseFloatRegIndex:64 and reg_idx:56
baseFloatRegIndex:64 and reg_idx:45
baseFloatRegIndex:64 and reg_idx:45
baseFloatRegIndex:64 and reg_idx:57
baseFloatRegIndex:64 and reg_idx:57
baseFloatRegIndex:64 and reg_idx:62
baseFloatRegIndex:64 and reg_idx:55
baseFloatRegIndex:64 and reg_idx:46
baseFloatRegIndex:64 and reg_idx:14
baseFloatRegIndex:64 and reg_idx:46
baseFloatRegIndex:64 and reg_idx:51
baseFloatRegIndex:64 and reg_idx:1
baseFloatRegIndex:64 and reg_idx:0
baseFloatRegIndex:64 and reg_idx:46
baseFloatRegIndex:64 and reg_idx:3
baseFloatRegIndex:64 and reg_idx:46
baseFloatRegIndex:64 and reg_idx:10
baseFloatRegIndex:64 and reg_idx:46
baseFloatRegIndex:64 and reg_idx:7
baseFloatRegIndex:64 and reg_idx:8
baseFloatRegIndex:64 and reg_idx:5
baseFloatRegIndex:64 and reg_idx:10
baseFloatRegIndex:64 and reg_idx:46
baseFloatRegIndex:64 and reg_idx:63
baseFloatRegIndex:64 and reg_idx:56
baseFloatRegIndex:64 and reg_idx:36
baseFloatRegIndex:64 and reg_idx:45
baseFloatRegIndex:64 and reg_idx:54
baseFloatRegIndex:64 and reg_idx:62
baseFloatRegIndex:64 and reg_idx:63
baseFloatRegIndex:64 and reg_idx:43
baseFloatRegIndex:64 and reg_idx:57
baseFloatRegIndex:64 and reg_idx:60
baseFloatRegIndex:64 and reg_idx:46
baseFloatRegIndex:64 and reg_idx:55
baseFloatRegIndex:64 and reg_idx:57
baseFloatRegIndex:64 and reg_idx:7
baseFloatRegIndex:64 and reg_idx:58
baseFloatRegIndex:64 and reg_idx:46
baseFloatRegIndex:64 and reg_idx:63
baseFloatRegIndex:64 and reg_idx:46
baseFloatRegIndex:64 and reg_idx:14
baseFloatRegIndex:64 and reg_idx:62
baseFloatRegIndex:64 and reg_idx:8
baseFloatRegIndex:64 and reg_idx:49
baseFloatRegIndex:64 and reg_idx:5
baseFloatRegIndex:64 and reg_idx:2
baseFloatRegIndex:64 and reg_idx:63
baseFloatRegIndex:64 and reg_idx:43
baseFloatRegIndex:64 and reg_idx:46
baseFloatRegIndex:64 and reg_idx:0
baseFloatRegIndex:64 and reg_idx:57
baseFloatRegIndex:64 and reg_idx:35
baseFloatRegIndex:64 and reg_idx:62
baseFloatRegIndex:64 and reg_idx:46
baseFloatRegIndex:64 and reg_idx:3
baseFloatRegIndex:64 and reg_idx:35
baseFloatRegIndex:64 and reg_idx:2
baseFloatRegIndex:64 and reg_idx:57
baseFloatRegIndex:64 and reg_idx:60
baseFloatRegIndex:64 and reg_idx:7
baseFloatRegIndex:64 and reg_idx:58
baseFloatRegIndex:64 and reg_idx:46
baseFloatRegIndex:64 and reg_idx:10
baseFloatRegIndex:64 and reg_idx:62
baseFloatRegIndex:64 and reg_idx:35
baseFloatRegIndex:64 and reg_idx:35
baseFloatRegIndex:64 and reg_idx:48
baseFloatRegIndex:64 and reg_idx:11
baseFloatRegIndex:64 and reg_idx:8
baseFloatRegIndex:64 and reg_idx:49
baseFloatRegIndex:64 and reg_idx:5
baseFloatRegIndex:64 and reg_idx:2
baseFloatRegIndex:64 and reg_idx:48
baseFloatRegIndex:64 and reg_idx:48
baseFloatRegIndex:64 and reg_idx:4
baseFloatRegIndex:64 and reg_idx:60
baseFloatRegIndex:64 and reg_idx:58
baseFloatRegIndex:64 and reg_idx:60
baseFloatRegIndex:64 and reg_idx:49
baseFloatRegIndex:64 and reg_idx:2
baseFloatRegIndex:64 and reg_idx:57
baseFloatRegIndex:64 and reg_idx:63
baseFloatRegIndex:64 and reg_idx:43
baseFloatRegIndex:64 and reg_idx:60
baseFloatRegIndex:64 and reg_idx:58
baseFloatRegIndex:64 and reg_idx:60
baseFloatRegIndex:64 and reg_idx:4
baseFloatRegIndex:64 and reg_idx:46
baseFloatRegIndex:64 and reg_idx:518
baseFloatRegIndex:64 and reg_idx:531
baseFloatRegIndex:64 and reg_idx:513
baseFloatRegIndex:64 and reg_idx:63
baseFloatRegIndex:64 and reg_idx:55
baseFloatRegIndex:64 and reg_idx:3
baseFloatRegIndex:64 and reg_idx:49
baseFloatRegIndex:64 and reg_idx:2
baseFloatRegIndex:64 and reg_idx:35
baseFloatRegIndex:64 and reg_idx:0
baseFloatRegIndex:64 and reg_idx:14
baseFloatRegIndex:64 and reg_idx:35
baseFloatRegIndex:64 and reg_idx:35
baseFloatRegIndex:64 and reg_idx:35
baseFloatRegIndex:64 and reg_idx:48
baseFloatRegIndex:64 and reg_idx:60
baseFloatRegIndex:64 and reg_idx:58
baseFloatRegIndex:64 and reg_idx:60
baseFloatRegIndex:64 and reg_idx:4
baseFloatRegIndex:64 and reg_idx:43
baseFloatRegIndex:64 and reg_idx:47
baseFloatRegIndex:64 and reg_idx:47
baseFloatRegIndex:64 and reg_idx:50
baseFloatRegIndex:64 and reg_idx:44
baseFloatRegIndex:64 and reg_idx:48
baseFloatRegIndex:64 and reg_idx:4
baseFloatRegIndex:64 and reg_idx:60
baseFloatRegIndex:64 and reg_idx:49
baseFloatRegIndex:64 and reg_idx:35
baseFloatRegIndex:64 and reg_idx:47
baseFloatRegIndex:64 and reg_idx:53
baseFloatRegIndex:64 and reg_idx:52
baseFloatRegIndex:64 and reg_idx:47
baseFloatRegIndex:64 and reg_idx:51
baseFloatRegIndex:64 and reg_idx:47
baseFloatRegIndex:64 and reg_idx:1
baseFloatRegIndex:64 and reg_idx:5
baseFloatRegIndex:64 and reg_idx:51
baseFloatRegIndex:64 and reg_idx:56
baseFloatRegIndex:64 and reg_idx:551
baseFloatRegIndex:64 and reg_idx:543
baseFloatRegIndex:64 and reg_idx:43
baseFloatRegIndex:64 and reg_idx:47
baseFloatRegIndex:64 and reg_idx:60
baseFloatRegIndex:64 and reg_idx:4
baseFloatRegIndex:64 and reg_idx:48
baseFloatRegIndex:64 and reg_idx:4
baseFloatRegIndex:64 and reg_idx:511
baseFloatRegIndex:64 and reg_idx:550
baseFloatRegIndex:64 and reg_idx:517
baseFloatRegIndex:64 and reg_idx:35
baseFloatRegIndex:64 and reg_idx:48
baseFloatRegIndex:64 and reg_idx:47
baseFloatRegIndex:64 and reg_idx:1
baseFloatRegIndex:64 and reg_idx:60
baseFloatRegIndex:64 and reg_idx:4
baseFloatRegIndex:64 and reg_idx:47
baseFloatRegIndex:64 and reg_idx:47
baseFloatRegIndex:64 and reg_idx:47
baseFloatRegIndex:64 and reg_idx:50
baseFloatRegIndex:64 and reg_idx:44
baseFloatRegIndex:64 and reg_idx:43
baseFloatRegIndex:64 and reg_idx:47
baseFloatRegIndex:64 and reg_idx:53
baseFloatRegIndex:64 and reg_idx:52
baseFloatRegIndex:64 and reg_idx:51
baseFloatRegIndex:64 and reg_idx:50
baseFloatRegIndex:64 and reg_idx:44
baseFloatRegIndex:64 and reg_idx:60
baseFloatRegIndex:64 and reg_idx:2
baseFloatRegIndex:64 and reg_idx:51
baseFloatRegIndex:64 and reg_idx:53
baseFloatRegIndex:64 and reg_idx:52
baseFloatRegIndex:64 and reg_idx:49
baseFloatRegIndex:64 and reg_idx:58
baseFloatRegIndex:64 and reg_idx:51
baseFloatRegIndex:64 and reg_idx:1
baseFloatRegIndex:64 and reg_idx:36
baseFloatRegIndex:64 and reg_idx:50
baseFloatRegIndex:64 and reg_idx:36
baseFloatRegIndex:64 and reg_idx:50
baseFloatRegIndex:64 and reg_idx:36
baseFloatRegIndex:64 and reg_idx:12
baseFloatRegIndex:64 and reg_idx:47
baseFloatRegIndex:64 and reg_idx:56
baseFloatRegIndex:64 and reg_idx:50
baseFloatRegIndex:64 and reg_idx:36
baseFloatRegIndex:64 and reg_idx:59
baseFloatRegIndex:64 and reg_idx:50
baseFloatRegIndex:64 and reg_idx:36
baseFloatRegIndex:64 and reg_idx:50
baseFloatRegIndex:64 and reg_idx:36
baseFloatRegIndex:64 and reg_idx:50
baseFloatRegIndex:64 and reg_idx:36
baseFloatRegIndex:64 and reg_idx:36
baseFloatRegIndex:64 and reg_idx:50
baseFloatRegIndex:64 and reg_idx:45
baseFloatRegIndex:64 and reg_idx:1
baseFloatRegIndex:64 and reg_idx:54
baseFloatRegIndex:64 and reg_idx:11
baseFloatRegIndex:64 and reg_idx:1
baseFloatRegIndex:64 and reg_idx:46
baseFloatRegIndex:64 and reg_idx:63
baseFloatRegIndex:64 and reg_idx:1
baseFloatRegIndex:64 and reg_idx:55
baseFloatRegIndex:64 and reg_idx:50
baseFloatRegIndex:64 and reg_idx:36
baseFloatRegIndex:64 and reg_idx:36
baseFloatRegIndex:64 and reg_idx:63
baseFloatRegIndex:64 and reg_idx:3
baseFloatRegIndex:64 and reg_idx:4
baseFloatRegIndex:64 and reg_idx:50
baseFloatRegIndex:64 and reg_idx:45
baseFloatRegIndex:64 and reg_idx:50
baseFloatRegIndex:64 and reg_idx:36
[...]
baseFloatRegIndex:64 and reg_idx:50
baseFloatRegIndex:64 and reg_idx:53
baseFloatRegIndex:64 and reg_idx:591
baseFloatRegIndex:64 and reg_idx:7
baseFloatRegIndex:64 and reg_idx:0
baseFloatRegIndex:64 and reg_idx:583
baseFloatRegIndex:64 and reg_idx:8
baseFloatRegIndex:64 and reg_idx:14
baseFloatRegIndex:64 and reg_idx:574
baseFloatRegIndex:64 and reg_idx:585
baseFloatRegIndex:64 and reg_idx:556
baseFloatRegIndex:64 and reg_idx:11
baseFloatRegIndex:64 and reg_idx:5
baseFloatRegIndex:64 and reg_idx:565
baseFloatRegIndex:64 and reg_idx:569
baseFloatRegIndex:64 and reg_idx:582
baseFloatRegIndex:64 and reg_idx:11
baseFloatRegIndex:64 and reg_idx:1
baseFloatRegIndex:64 and reg_idx:1
baseFloatRegIndex:64 and reg_idx:56
baseFloatRegIndex:64 and reg_idx:56
baseFloatRegIndex:64 and reg_idx:54
baseFloatRegIndex:64 and reg_idx:54
baseFloatRegIndex:64 and reg_idx:1
baseFloatRegIndex:64 and reg_idx:54
baseFloatRegIndex:64 and reg_idx:1
baseFloatRegIndex:64 and reg_idx:54
baseFloatRegIndex:64 and reg_idx:1
baseFloatRegIndex:64 and reg_idx:35
baseFloatRegIndex:64 and reg_idx:48
baseFloatRegIndex:64 and reg_idx:11
baseFloatRegIndex:64 and reg_idx:1
baseFloatRegIndex:64 and reg_idx:43
baseFloatRegIndex:64 and reg_idx:1
baseFloatRegIndex:64 and reg_idx:35
baseFloatRegIndex:64 and reg_idx:60
baseFloatRegIndex:64 and reg_idx:43
baseFloatRegIndex:64 and reg_idx:2
baseFloatRegIndex:64 and reg_idx:2
baseFloatRegIndex:64 and reg_idx:60
baseFloatRegIndex:64 and reg_idx:48
baseFloatRegIndex:64 and reg_idx:60
baseFloatRegIndex:64 and reg_idx:49
baseFloatRegIndex:64 and reg_idx:58
baseFloatRegIndex:64 and reg_idx:12
baseFloatRegIndex:64 and reg_idx:36
baseFloatRegIndex:64 and reg_idx:1
baseFloatRegIndex:64 and reg_idx:1
baseFloatRegIndex:64 and reg_idx:58
baseFloatRegIndex:64 and reg_idx:45
baseFloatRegIndex:64 and reg_idx:46
baseFloatRegIndex:64 and reg_idx:1
baseFloatRegIndex:64 and reg_idx:56
baseFloatRegIndex:64 and reg_idx:60
baseFloatRegIndex:64 and reg_idx:57
baseFloatRegIndex:64 and reg_idx:35
baseFloatRegIndex:64 and reg_idx:57
baseFloatRegIndex:64 and reg_idx:58
baseFloatRegIndex:64 and reg_idx:35
baseFloatRegIndex:64 and reg_idx:56
baseFloatRegIndex:64 and reg_idx:54
baseFloatRegIndex:64 and reg_idx:58
baseFloatRegIndex:64 and reg_idx:54
baseFloatRegIndex:64 and reg_idx:578
baseFloatRegIndex:64 and reg_idx:577
baseFloatRegIndex:64 and reg_idx:604
baseFloatRegIndex:64 and reg_idx:58
baseFloatRegIndex:64 and reg_idx:57
baseFloatRegIndex:64 and reg_idx:1
baseFloatRegIndex:64 and reg_idx:43
baseFloatRegIndex:64 and reg_idx:1
baseFloatRegIndex:64 and reg_idx:54
baseFloatRegIndex:64 and reg_idx:56
baseFloatRegIndex:64 and reg_idx:54
baseFloatRegIndex:64 and reg_idx:50
baseFloatRegIndex:64 and reg_idx:56
baseFloatRegIndex:64 and reg_idx:35
baseFloatRegIndex:64 and reg_idx:60
baseFloatRegIndex:64 and reg_idx:1
baseFloatRegIndex:64 and reg_idx:54
baseFloatRegIndex:64 and reg_idx:580
baseFloatRegIndex:64 and reg_idx:584
baseFloatRegIndex:64 and reg_idx:564
baseFloatRegIndex:64 and reg_idx:43
baseFloatRegIndex:64 and reg_idx:35
baseFloatRegIndex:64 and reg_idx:48
baseFloatRegIndex:64 and reg_idx:43
baseFloatRegIndex:64 and reg_idx:60
baseFloatRegIndex:64 and reg_idx:2
baseFloatRegIndex:64 and reg_idx:52
baseFloatRegIndex:64 and reg_idx:7
baseFloatRegIndex:64 and reg_idx:8
baseFloatRegIndex:64 and reg_idx:4
baseFloatRegIndex:64 and reg_idx:2
baseFloatRegIndex:64 and reg_idx:60
baseFloatRegIndex:64 and reg_idx:60
baseFloatRegIndex:64 and reg_idx:49
baseFloatRegIndex:64 and reg_idx:2
baseFloatRegIndex:64 and reg_idx:43
baseFloatRegIndex:64 and reg_idx:63
baseFloatRegIndex:64 and reg_idx:63
baseFloatRegIndex:64 and reg_idx:49
baseFloatRegIndex:64 and reg_idx:55
baseFloatRegIndex:64 and reg_idx:43
baseFloatRegIndex:64 and reg_idx:48
baseFloatRegIndex:64 and reg_idx:55
baseFloatRegIndex:64 and reg_idx:3
baseFloatRegIndex:64 and reg_idx:54
baseFloatRegIndex:64 and reg_idx:36
baseFloatRegIndex:64 and reg_idx:589
baseFloatRegIndex:64 and reg_idx:602
baseFloatRegIndex:64 and reg_idx:576
baseFloatRegIndex:64 and reg_idx:49
baseFloatRegIndex:64 and reg_idx:58
baseFloatRegIndex:64 and reg_idx:44
baseFloatRegIndex:64 and reg_idx:2
baseFloatRegIndex:64 and reg_idx:36
baseFloatRegIndex:64 and reg_idx:45
baseFloatRegIndex:64 and reg_idx:10
baseFloatRegIndex:64 and reg_idx:12
baseFloatRegIndex:64 and reg_idx:43
baseFloatRegIndex:64 and reg_idx:63
baseFloatRegIndex:64 and reg_idx:63
baseFloatRegIndex:64 and reg_idx:49
baseFloatRegIndex:64 and reg_idx:55
baseFloatRegIndex:64 and reg_idx:63
baseFloatRegIndex:64 and reg_idx:58
baseFloatRegIndex:64 and reg_idx:55
baseFloatRegIndex:64 and reg_idx:63
baseFloatRegIndex:64 and reg_idx:568
baseFloatRegIndex:64 and reg_idx:575
baseFloatRegIndex:64 and reg_idx:590
baseFloatRegIndex:64 and reg_idx:43
baseFloatRegIndex:64 and reg_idx:48
baseFloatRegIndex:64 and reg_idx:3
baseFloatRegIndex:64 and reg_idx:3
baseFloatRegIndex:64 and reg_idx:55
baseFloatRegIndex:64 and reg_idx:3
baseFloatRegIndex:64 and reg_idx:3
baseFloatRegIndex:64 and reg_idx:51
baseFloatRegIndex:64 and reg_idx:36
baseFloatRegIndex:64 and reg_idx:53
baseFloatRegIndex:64 and reg_idx:3
baseFloatRegIndex:64 and reg_idx:3
baseFloatRegIndex:64 and reg_idx:51
baseFloatRegIndex:64 and reg_idx:36
baseFloatRegIndex:64 and reg_idx:1
baseFloatRegIndex:64 and reg_idx:613
baseFloatRegIndex:64 and reg_idx:612
baseFloatRegIndex:64 and reg_idx:480
baseFloatRegIndex:64 and reg_idx:51
baseFloatRegIndex:64 and reg_idx:592
baseFloatRegIndex:64 and reg_idx:579
baseFloatRegIndex:64 and reg_idx:49
baseFloatRegIndex:64 and reg_idx:593
baseFloatRegIndex:64 and reg_idx:606
baseFloatRegIndex:64 and reg_idx:605
baseFloatRegIndex:64 and reg_idx:53
baseFloatRegIndex:64 and reg_idx:60
baseFloatRegIndex:64 and reg_idx:0
baseFloatRegIndex:64 and reg_idx:35
baseFloatRegIndex:64 and reg_idx:0
baseFloatRegIndex:64 and reg_idx:45
baseFloatRegIndex:64 and reg_idx:35
baseFloatRegIndex:64 and reg_idx:61
baseFloatRegIndex:64 and reg_idx:14
baseFloatRegIndex:64 and reg_idx:60
baseFloatRegIndex:64 and reg_idx:0
baseFloatRegIndex:64 and reg_idx:48
baseFloatRegIndex:64 and reg_idx:5
baseFloatRegIndex:64 and reg_idx:35
baseFloatRegIndex:64 and reg_idx:0
baseFloatRegIndex:64 and reg_idx:1
baseFloatRegIndex:64 and reg_idx:46
baseFloatRegIndex:64 and reg_idx:14
baseFloatRegIndex:64 and reg_idx:57
baseFloatRegIndex:64 and reg_idx:50
baseFloatRegIndex:64 and reg_idx:35
baseFloatRegIndex:64 and reg_idx:0
baseFloatRegIndex:64 and reg_idx:56
baseFloatRegIndex:64 and reg_idx:3
baseFloatRegIndex:64 and reg_idx:48
baseFloatRegIndex:64 and reg_idx:5
baseFloatRegIndex:64 and reg_idx:61
baseFloatRegIndex:64 and reg_idx:594
baseFloatRegIndex:64 and reg_idx:601
baseFloatRegIndex:64 and reg_idx:603
baseFloatRegIndex:64 and reg_idx:1
baseFloatRegIndex:64 and reg_idx:46
baseFloatRegIndex:64 and reg_idx:50
baseFloatRegIndex:64 and reg_idx:14
baseFloatRegIndex:64 and reg_idx:56
baseFloatRegIndex:64 and reg_idx:35
baseFloatRegIndex:64 and reg_idx:50
baseFloatRegIndex:64 and reg_idx:48
baseFloatRegIndex:64 and reg_idx:57
baseFloatRegIndex:64 and reg_idx:51
baseFloatRegIndex:64 and reg_idx:46
baseFloatRegIndex:64 and reg_idx:0
baseFloatRegIndex:64 and reg_idx:5
baseFloatRegIndex:64 and reg_idx:43
baseFloatRegIndex:64 and reg_idx:14
baseFloatRegIndex:64 and reg_idx:614
baseFloatRegIndex:64 and reg_idx:608
baseFloatRegIndex:64 and reg_idx:610
baseFloatRegIndex:64 and reg_idx:11
baseFloatRegIndex:64 and reg_idx:13
baseFloatRegIndex:64 and reg_idx:11
baseFloatRegIndex:64 and reg_idx:52
baseFloatRegIndex:64 and reg_idx:52
baseFloatRegIndex:64 and reg_idx:9
baseFloatRegIndex:64 and reg_idx:7
baseFloatRegIndex:64 and reg_idx:47
baseFloatRegIndex:64 and reg_idx:8
baseFloatRegIndex:64 and reg_idx:8
baseFloatRegIndex:64 and reg_idx:4
baseFloatRegIndex:64 and reg_idx:54
baseFloatRegIndex:64 and reg_idx:8
baseFloatRegIndex:64 and reg_idx:44
baseFloatRegIndex:64 and reg_idx:2
baseFloatRegIndex:64 and reg_idx:11
baseFloatRegIndex:64 and reg_idx:13
baseFloatRegIndex:64 and reg_idx:8
baseFloatRegIndex:64 and reg_idx:10
baseFloatRegIndex:64 and reg_idx:12
baseFloatRegIndex:64 and reg_idx:8
baseFloatRegIndex:64 and reg_idx:58
baseFloatRegIndex:64 and reg_idx:63
baseFloatRegIndex:64 and reg_idx:8
baseFloatRegIndex:64 and reg_idx:55
baseFloatRegIndex:64 and reg_idx:11
baseFloatRegIndex:64 and reg_idx:8
baseFloatRegIndex:64 and reg_idx:49
baseFloatRegIndex:64 and reg_idx:55
baseFloatRegIndex:64 and reg_idx:45
baseFloatRegIndex:64 and reg_idx:47
baseFloatRegIndex:64 and reg_idx:8
baseFloatRegIndex:64 and reg_idx:52
baseFloatRegIndex:64 and reg_idx:52
baseFloatRegIndex:64 and reg_idx:8
baseFloatRegIndex:64 and reg_idx:49
baseFloatRegIndex:64 and reg_idx:8
baseFloatRegIndex:64 and reg_idx:9
baseFloatRegIndex:64 and reg_idx:7
baseFloatRegIndex:64 and reg_idx:8
baseFloatRegIndex:64 and reg_idx:52
baseFloatRegIndex:64 and reg_idx:11
baseFloatRegIndex:64 and reg_idx:8
baseFloatRegIndex:64 and reg_idx:53
baseFloatRegIndex:64 and reg_idx:45
baseFloatRegIndex:64 and reg_idx:8
baseFloatRegIndex:64 and reg_idx:49
baseFloatRegIndex:64 and reg_idx:59
baseFloatRegIndex:64 and reg_idx:55
baseFloatRegIndex:64 and reg_idx:15
baseFloatRegIndex:64 and reg_idx:63
baseFloatRegIndex:64 and reg_idx:61
baseFloatRegIndex:64 and reg_idx:58
baseFloatRegIndex:64 and reg_idx:9
baseFloatRegIndex:64 and reg_idx:12
baseFloatRegIndex:64 and reg_idx:13
baseFloatRegIndex:64 and reg_idx:10
baseFloatRegIndex:64 and reg_idx:35
baseFloatRegIndex:64 and reg_idx:2
baseFloatRegIndex:64 and reg_idx:1
baseFloatRegIndex:64 and reg_idx:44
baseFloatRegIndex:64 and reg_idx:52
baseFloatRegIndex:64 and reg_idx:54
baseFloatRegIndex:64 and reg_idx:60
baseFloatRegIndex:64 and reg_idx:4
baseFloatRegIndex:64 and reg_idx:47
baseFloatRegIndex:64 and reg_idx:8
baseFloatRegIndex:64 and reg_idx:51
baseFloatRegIndex:64 and reg_idx:7
baseFloatRegIndex:64 and reg_idx:600
baseFloatRegIndex:64 and reg_idx:597
baseFloatRegIndex:64 and reg_idx:599
baseFloatRegIndex:64 and reg_idx:52
baseFloatRegIndex:64 and reg_idx:3
baseFloatRegIndex:64 and reg_idx:3
baseFloatRegIndex:64 and reg_idx:56
baseFloatRegIndex:64 and reg_idx:53
baseFloatRegIndex:64 and reg_idx:50
baseFloatRegIndex:64 and reg_idx:3
baseFloatRegIndex:64 and reg_idx:50
baseFloatRegIndex:64 and reg_idx:57
baseFloatRegIndex:64 and reg_idx:57
baseFloatRegIndex:64 and reg_idx:52
baseFloatRegIndex:64 and reg_idx:46
baseFloatRegIndex:64 and reg_idx:46
baseFloatRegIndex:64 and reg_idx:52
baseFloatRegIndex:64 and reg_idx:52
baseFloatRegIndex:64 and reg_idx:5
baseFloatRegIndex:64 and reg_idx:3
baseFloatRegIndex:64 and reg_idx:14
baseFloatRegIndex:64 and reg_idx:50
baseFloatRegIndex:64 and reg_idx:11
baseFloatRegIndex:64 and reg_idx:11
baseFloatRegIndex:64 and reg_idx:45
baseFloatRegIndex:64 and reg_idx:3
baseFloatRegIndex:64 and reg_idx:56
baseFloatRegIndex:64 and reg_idx:52
baseFloatRegIndex:64 and reg_idx:49
baseFloatRegIndex:64 and reg_idx:14
baseFloatRegIndex:64 and reg_idx:55
baseFloatRegIndex:64 and reg_idx:3
baseFloatRegIndex:64 and reg_idx:50
baseFloatRegIndex:64 and reg_idx:57
baseFloatRegIndex:64 and reg_idx:52
baseFloatRegIndex:64 and reg_idx:3
baseFloatRegIndex:64 and reg_idx:46
baseFloatRegIndex:64 and reg_idx:49
baseFloatRegIndex:64 and reg_idx:63
baseFloatRegIndex:64 and reg_idx:5
baseFloatRegIndex:64 and reg_idx:58
baseFloatRegIndex:64 and reg_idx:49
baseFloatRegIndex:64 and reg_idx:12
baseFloatRegIndex:64 and reg_idx:43
baseFloatRegIndex:64 and reg_idx:57
baseFloatRegIndex:64 and reg_idx:14
baseFloatRegIndex:64 and reg_idx:56
baseFloatRegIndex:64 and reg_idx:5
baseFloatRegIndex:64 and reg_idx:58
baseFloatRegIndex:64 and reg_idx:63
baseFloatRegIndex:64 and reg_idx:56
baseFloatRegIndex:64 and reg_idx:60
baseFloatRegIndex:64 and reg_idx:10
baseFloatRegIndex:64 and reg_idx:609
baseFloatRegIndex:64 and reg_idx:48
baseFloatRegIndex:64 and reg_idx:625
baseFloatRegIndex:64 and reg_idx:46
baseFloatRegIndex:64 and reg_idx:50
baseFloatRegIndex:64 and reg_idx:57
baseFloatRegIndex:64 and reg_idx:56
baseFloatRegIndex:64 and reg_idx:2
baseFloatRegIndex:64 and reg_idx:0
baseFloatRegIndex:64 and reg_idx:50
baseFloatRegIndex:64 and reg_idx:11
baseFloatRegIndex:64 and reg_idx:10
baseFloatRegIndex:64 and reg_idx:2
baseFloatRegIndex:64 and reg_idx:60
baseFloatRegIndex:64 and reg_idx:10
baseFloatRegIndex:64 and reg_idx:624
baseFloatRegIndex:64 and reg_idx:628
baseFloatRegIndex:64 and reg_idx:629
baseFloatRegIndex:64 and reg_idx:61
baseFloatRegIndex:64 and reg_idx:12
baseFloatRegIndex:64 and reg_idx:46
baseFloatRegIndex:64 and reg_idx:58
baseFloatRegIndex:64 and reg_idx:35
baseFloatRegIndex:64 and reg_idx:63
baseFloatRegIndex:64 and reg_idx:45
baseFloatRegIndex:64 and reg_idx:55
baseFloatRegIndex:64 and reg_idx:11
baseFloatRegIndex:64 and reg_idx:49
baseFloatRegIndex:64 and reg_idx:53
baseFloatRegIndex:64 and reg_idx:45
baseFloatRegIndex:64 and reg_idx:51
baseFloatRegIndex:64 and reg_idx:11
baseFloatRegIndex:64 and reg_idx:36
baseFloatRegIndex:64 and reg_idx:14
baseFloatRegIndex:64 and reg_idx:3
baseFloatRegIndex:64 and reg_idx:5
baseFloatRegIndex:64 and reg_idx:630
baseFloatRegIndex:64 and reg_idx:611
baseFloatRegIndex:64 and reg_idx:595
baseFloatRegIndex:64 and reg_idx:57
baseFloatRegIndex:64 and reg_idx:46
baseFloatRegIndex:64 and reg_idx:626
baseFloatRegIndex:64 and reg_idx:598
baseFloatRegIndex:64 and reg_idx:596
baseFloatRegIndex:64 and reg_idx:52
baseFloatRegIndex:64 and reg_idx:13
baseFloatRegIndex:64 and reg_idx:52
baseFloatRegIndex:64 and reg_idx:44
baseFloatRegIndex:64 and reg_idx:44
baseFloatRegIndex:64 and reg_idx:9
baseFloatRegIndex:64 and reg_idx:54
baseFloatRegIndex:64 and reg_idx:47
baseFloatRegIndex:64 and reg_idx:4
baseFloatRegIndex:64 and reg_idx:4
baseFloatRegIndex:64 and reg_idx:8
baseFloatRegIndex:64 and reg_idx:7
baseFloatRegIndex:64 and reg_idx:52
baseFloatRegIndex:64 and reg_idx:13
baseFloatRegIndex:64 and reg_idx:4
baseFloatRegIndex:64 and reg_idx:43
baseFloatRegIndex:64 and reg_idx:48
baseFloatRegIndex:64 and reg_idx:4
baseFloatRegIndex:64 and reg_idx:0
baseFloatRegIndex:64 and reg_idx:50
baseFloatRegIndex:64 and reg_idx:4
baseFloatRegIndex:64 and reg_idx:2
baseFloatRegIndex:64 and reg_idx:10
baseFloatRegIndex:64 and reg_idx:52
baseFloatRegIndex:64 and reg_idx:4
baseFloatRegIndex:64 and reg_idx:12
baseFloatRegIndex:64 and reg_idx:4
baseFloatRegIndex:64 and reg_idx:58
baseFloatRegIndex:64 and reg_idx:12
baseFloatRegIndex:64 and reg_idx:63
baseFloatRegIndex:64 and reg_idx:47
baseFloatRegIndex:64 and reg_idx:4
baseFloatRegIndex:64 and reg_idx:44
baseFloatRegIndex:64 and reg_idx:55
baseFloatRegIndex:64 and reg_idx:63
baseFloatRegIndex:64 and reg_idx:49
baseFloatRegIndex:64 and reg_idx:8
baseFloatRegIndex:64 and reg_idx:45
baseFloatRegIndex:64 and reg_idx:44
baseFloatRegIndex:64 and reg_idx:4
baseFloatRegIndex:64 and reg_idx:58
baseFloatRegIndex:64 and reg_idx:4
baseFloatRegIndex:64 and reg_idx:11
baseFloatRegIndex:64 and reg_idx:9
baseFloatRegIndex:64 and reg_idx:54
baseFloatRegIndex:64 and reg_idx:4
baseFloatRegIndex:64 and reg_idx:44
baseFloatRegIndex:64 and reg_idx:58
baseFloatRegIndex:64 and reg_idx:14
baseFloatRegIndex:64 and reg_idx:49
baseFloatRegIndex:64 and reg_idx:58
baseFloatRegIndex:64 and reg_idx:45
baseFloatRegIndex:64 and reg_idx:58
baseFloatRegIndex:64 and reg_idx:52
baseFloatRegIndex:64 and reg_idx:55
baseFloatRegIndex:64 and reg_idx:4
baseFloatRegIndex:64 and reg_idx:8
baseFloatRegIndex:64 and reg_idx:7
baseFloatRegIndex:64 and reg_idx:43
baseFloatRegIndex:64 and reg_idx:48
baseFloatRegIndex:64 and reg_idx:57
baseFloatRegIndex:64 and reg_idx:58
baseFloatRegIndex:64 and reg_idx:58
baseFloatRegIndex:64 and reg_idx:5
baseFloatRegIndex:64 and reg_idx:615
baseFloatRegIndex:64 and reg_idx:627
baseFloatRegIndex:64 and reg_idx:607
baseFloatRegIndex:64 and reg_idx:11
baseFloatRegIndex:64 and reg_idx:4
baseFloatRegIndex:64 and reg_idx:54
baseFloatRegIndex:64 and reg_idx:4
baseFloatRegIndex:64 and reg_idx:0
baseFloatRegIndex:64 and reg_idx:50
baseFloatRegIndex:64 and reg_idx:8
baseFloatRegIndex:64 and reg_idx:5
baseFloatRegIndex:64 and reg_idx:7
baseFloatRegIndex:64 and reg_idx:5
baseFloatRegIndex:64 and reg_idx:43
baseFloatRegIndex:64 and reg_idx:5
baseFloatRegIndex:64 and reg_idx:51
baseFloatRegIndex:64 and reg_idx:47
baseFloatRegIndex:64 and reg_idx:8
baseFloatRegIndex:64 and reg_idx:45
baseFloatRegIndex:64 and reg_idx:58
baseFloatRegIndex:64 and reg_idx:14
baseFloatRegIndex:64 and reg_idx:4
baseFloatRegIndex:64 and reg_idx:2
baseFloatRegIndex:64 and reg_idx:10
baseFloatRegIndex:64 and reg_idx:58
baseFloatRegIndex:64 and reg_idx:5
baseFloatRegIndex:64 and reg_idx:8
baseFloatRegIndex:64 and reg_idx:7
baseFloatRegIndex:64 and reg_idx:43
baseFloatRegIndex:64 and reg_idx:48
baseFloatRegIndex:64 and reg_idx:12
baseFloatRegIndex:64 and reg_idx:48
baseFloatRegIndex:64 and reg_idx:5
baseFloatRegIndex:64 and reg_idx:0
baseFloatRegIndex:64 and reg_idx:5
baseFloatRegIndex:64 and reg_idx:60
baseFloatRegIndex:64 and reg_idx:44
baseFloatRegIndex:64 and reg_idx:1
baseFloatRegIndex:64 and reg_idx:35
baseFloatRegIndex:64 and reg_idx:58
baseFloatRegIndex:64 and reg_idx:45
baseFloatRegIndex:64 and reg_idx:0
baseFloatRegIndex:64 and reg_idx:50
baseFloatRegIndex:64 and reg_idx:13
baseFloatRegIndex:64 and reg_idx:9
baseFloatRegIndex:64 and reg_idx:12
baseFloatRegIndex:64 and reg_idx:58
baseFloatRegIndex:64 and reg_idx:57
baseFloatRegIndex:64 and reg_idx:2
baseFloatRegIndex:64 and reg_idx:10
baseFloatRegIndex:64 and reg_idx:61
baseFloatRegIndex:64 and reg_idx:15
baseFloatRegIndex:64 and reg_idx:5
baseFloatRegIndex:64 and reg_idx:8
baseFloatRegIndex:64 and reg_idx:58
baseFloatRegIndex:64 and reg_idx:5
baseFloatRegIndex:64 and reg_idx:62
baseFloatRegIndex:64 and reg_idx:14
baseFloatRegIndex:64 and reg_idx:36
baseFloatRegIndex:64 and reg_idx:11
baseFloatRegIndex:64 and reg_idx:3
baseFloatRegIndex:64 and reg_idx:45
baseFloatRegIndex:64 and reg_idx:56
baseFloatRegIndex:64 and reg_idx:49
baseFloatRegIndex:64 and reg_idx:54
baseFloatRegIndex:64 and reg_idx:55
baseFloatRegIndex:64 and reg_idx:12
baseFloatRegIndex:64 and reg_idx:58
baseFloatRegIndex:64 and reg_idx:63
baseFloatRegIndex:64 and reg_idx:59
baseFloatRegIndex:64 and reg_idx:4
baseFloatRegIndex:64 and reg_idx:53
baseFloatRegIndex:64 and reg_idx:43
baseFloatRegIndex:64 and reg_idx:8
baseFloatRegIndex:64 and reg_idx:7
baseFloatRegIndex:64 and reg_idx:46
baseFloatRegIndex:64 and reg_idx:52
baseFloatRegIndex:64 and reg_idx:43
baseFloatRegIndex:64 and reg_idx:8
baseFloatRegIndex:64 and reg_idx:63
baseFloatRegIndex:64 and reg_idx:51
baseFloatRegIndex:64 and reg_idx:63
baseFloatRegIndex:64 and reg_idx:47
baseFloatRegIndex:64 and reg_idx:46
baseFloatRegIndex:64 and reg_idx:60
baseFloatRegIndex:64 and reg_idx:7
baseFloatRegIndex:64 and reg_idx:46
baseFloatRegIndex:64 and reg_idx:60
baseFloatRegIndex:64 and reg_idx:44
baseFloatRegIndex:64 and reg_idx:1
baseFloatRegIndex:64 and reg_idx:52
baseFloatRegIndex:64 and reg_idx:621
baseFloatRegIndex:64 and reg_idx:616
baseFloatRegIndex:64 and reg_idx:623
baseFloatRegIndex:64 and reg_idx:46
baseFloatRegIndex:64 and reg_idx:60
baseFloatRegIndex:64 and reg_idx:46
baseFloatRegIndex:64 and reg_idx:54
baseFloatRegIndex:64 and reg_idx:60
baseFloatRegIndex:64 and reg_idx:44
baseFloatRegIndex:64 and reg_idx:52
baseFloatRegIndex:64 and reg_idx:36
baseFloatRegIndex:64 and reg_idx:1
baseFloatRegIndex:64 and reg_idx:51
baseFloatRegIndex:64 and reg_idx:47
baseFloatRegIndex:64 and reg_idx:51
baseFloatRegIndex:64 and reg_idx:8
baseFloatRegIndex:64 and reg_idx:47
baseFloatRegIndex:64 and reg_idx:60
baseFloatRegIndex:64 and reg_idx:44
baseFloatRegIndex:64 and reg_idx:1
baseFloatRegIndex:64 and reg_idx:7
baseFloatRegIndex:64 and reg_idx:56
baseFloatRegIndex:64 and reg_idx:46
baseFloatRegIndex:64 and reg_idx:48
baseFloatRegIndex:64 and reg_idx:1
baseFloatRegIndex:64 and reg_idx:1
baseFloatRegIndex:64 and reg_idx:44
baseFloatRegIndex:64 and reg_idx:44
baseFloatRegIndex:64 and reg_idx:44
baseFloatRegIndex:64 and reg_idx:44
Exiting @ tick 16350500 because target called exit()
