gem5 Simulator System.  http://gem5.org
gem5 is copyrighted software; use the --copyright option for details.

gem5 compiled Feb 27 2015 19:11:35
gem5 started Feb 27 2015 19:12:16
gem5 executing on bigbird
command line: ./build/ARM/gem5.opt --outdir=m5out --debug-flags=Drain configs/example/se.py --cmd=/research/ljindal/445.gobmk --options=--quiet --mode gtp --input=/research/ljindal/nicklas4.tst --output=445.gobmk.stdout --errout=445.gobmk.stderr --num-cpus=1 --caches -I 10000000000 --cpu-type=detailed
Global frequency set at 1000000000000 ticks per second
BTBPRINT _numEntries:4096 _tagBits:16 _instShiftAmt:2 idxMask:4095 tagMask:65535 tagShiftAmt:14
      0: system.cpu.isa: ISA system set to: 0 0x5d04000
*****TRANSFORM totalNumRegs = 256+256+1280
*********TRANSFORM REG_IDX after init is 1792
0: system.remote_gdb.listener: listening for remote gdb #0 on port 7000
**** REAL SIMULATION ****
info: Entering event queue @ 0.  Starting simulation...
warn: CP14 unimplemented crn[0], opc1[6], crm[3], opc2[4]
warn: CP14 unimplemented crn[8], opc1[2], crm[9], opc2[4]
*****TRANSFORM going to call drain()
15270500: system.cpu: Draining...
15270500: system.cpu: Main CPU structures not drained.
15270500: system.cpu: Fetch not drained.
15270500: system.cpu: Decode not drained.
15270500: system.cpu: Rename not drained.
15270500: system.cpu.iew.lsq: Not drained, SQ not empty.
15270500: system.cpu: IEW not drained.
15270500: system.cpu: Commit not drained.
15270500: system.cpu: CPU not drained
*****TRANSFORM DONE calling with drain()
15270500: system.cpu: Main CPU structures not drained.
15270500: system.cpu: Fetch not drained.
15270500: system.cpu: Decode not drained.
15270500: system.cpu: Rename not drained.
15270500: system.cpu.iew.lsq: Not drained, SQ not empty.
15270500: system.cpu: IEW not drained.
15270500: system.cpu: Commit not drained.
15271000: system.cpu: Main CPU structures not drained.
15271000: system.cpu: Fetch not drained.
15271000: system.cpu: Decode not drained.
15271000: system.cpu: Rename not drained.
15271000: system.cpu.iew.lsq: Not drained, SQ not empty.
15271000: system.cpu: IEW not drained.
15271000: system.cpu: Commit not drained.
15271500: system.cpu: Main CPU structures not drained.
15271500: system.cpu: Fetch not drained.
15271500: system.cpu: Decode not drained.
15271500: system.cpu: Rename not drained.
15271500: system.cpu.iew.lsq: Not drained, SQ not empty.
15271500: system.cpu: IEW not drained.
15271500: system.cpu: Commit not drained.
15272000: system.cpu: Main CPU structures not drained.
15272000: system.cpu: Fetch not drained.
15272000: system.cpu: Decode not drained.
15272000: system.cpu: Rename not drained.
15272000: system.cpu.iew.lsq: Not drained, SQ not empty.
15272000: system.cpu: IEW not drained.
15272000: system.cpu: Commit not drained.
15272500: system.cpu: Main CPU structures not drained.
15272500: system.cpu: Fetch not drained.
15272500: system.cpu: Decode not drained.
15272500: system.cpu: Rename not drained.
15272500: system.cpu.iew.lsq: Not drained, SQ not empty.
15272500: system.cpu: IEW not drained.
15272500: system.cpu: Commit not drained.
15273000: system.cpu: Main CPU structures not drained.
15273000: system.cpu: Fetch not drained.
15273000: system.cpu: Decode not drained.
15273000: system.cpu: Rename not drained.
15273000: system.cpu.iew.lsq: Not drained, SQ not empty.
15273000: system.cpu: IEW not drained.
15273000: system.cpu: Commit not drained.
15273500: system.cpu: Main CPU structures not drained.
15273500: system.cpu: Fetch not drained.
15273500: system.cpu: Decode not drained.
15273500: system.cpu: Rename not drained.
15273500: system.cpu.iew.lsq: Not drained, SQ not empty.
15273500: system.cpu: IEW not drained.
15273500: system.cpu: Commit not drained.
15274000: system.cpu: Main CPU structures not drained.
15274000: system.cpu: Fetch not drained.
15274000: system.cpu: Decode not drained.
15274000: system.cpu: Rename not drained.
15274000: system.cpu.iew.lsq: Not drained, SQ not empty.
15274000: system.cpu: IEW not drained.
15274000: system.cpu: Commit not drained.
15274500: system.cpu: Main CPU structures not drained.
15274500: system.cpu: Fetch not drained.
15274500: system.cpu: Decode not drained.
15274500: system.cpu: Rename not drained.
15274500: system.cpu.iew.lsq: Not drained, SQ not empty.
15274500: system.cpu: IEW not drained.
15274500: system.cpu: Commit not drained.
15275000: system.cpu: Main CPU structures not drained.
15275000: system.cpu: Fetch not drained.
15275000: system.cpu: Decode not drained.
15275000: system.cpu: Rename not drained.
15275000: system.cpu.iew.lsq: Not drained, SQ not empty.
15275000: system.cpu: IEW not drained.
15275000: system.cpu: Commit not drained.
15275500: system.cpu: Main CPU structures not drained.
15275500: system.cpu: Fetch not drained.
15275500: system.cpu: Decode not drained.
15275500: system.cpu: Rename not drained.
15275500: system.cpu.iew.lsq: Not drained, SQ not empty.
15275500: system.cpu: IEW not drained.
15275500: system.cpu: Commit not drained.
15276000: system.cpu: Main CPU structures not drained.
15276000: system.cpu: Fetch not drained.
15276000: system.cpu: Decode not drained.
15276000: system.cpu: Rename not drained.
15276000: system.cpu.iew.lsq: Not drained, SQ not empty.
15276000: system.cpu: IEW not drained.
15276000: system.cpu: Commit not drained.
15276500: system.cpu: Main CPU structures not drained.
15276500: system.cpu: Fetch not drained.
15276500: system.cpu: Decode not drained.
15276500: system.cpu: Rename not drained.
15276500: system.cpu.iew.lsq: Not drained, SQ not empty.
15276500: system.cpu: IEW not drained.
15276500: system.cpu: Commit not drained.
15277000: system.cpu: Main CPU structures not drained.
15277000: system.cpu: Fetch not drained.
15277000: system.cpu: Decode not drained.
15277000: system.cpu: Rename not drained.
15277000: system.cpu.iew.lsq: Not drained, SQ not empty.
15277000: system.cpu: IEW not drained.
15277000: system.cpu: Commit not drained.
15277500: system.cpu: Main CPU structures not drained.
15277500: system.cpu: Fetch not drained.
15277500: system.cpu: Decode not drained.
15277500: system.cpu: Rename not drained.
15277500: system.cpu.iew.lsq: Not drained, SQ not empty.
15277500: system.cpu: IEW not drained.
15277500: system.cpu: Commit not drained.
15278000: system.cpu: Main CPU structures not drained.
15278000: system.cpu: Fetch not drained.
15278000: system.cpu: Decode not drained.
15278000: system.cpu: Rename not drained.
15278000: system.cpu.iew.lsq: Not drained, SQ not empty.
15278000: system.cpu: IEW not drained.
15278000: system.cpu: Commit not drained.
15278500: system.cpu: Main CPU structures not drained.
15278500: system.cpu: Fetch not drained.
15278500: system.cpu: Decode not drained.
15278500: system.cpu: Rename not drained.
15278500: system.cpu.iew.lsq: Not drained, SQ not empty.
15278500: system.cpu: IEW not drained.
15278500: system.cpu: Commit not drained.
15279000: system.cpu: Main CPU structures not drained.
15279000: system.cpu: Fetch not drained.
15279000: system.cpu: Decode not drained.
15279000: system.cpu: Rename not drained.
15279000: system.cpu.iew.lsq: Not drained, SQ not empty.
15279000: system.cpu: IEW not drained.
15279000: system.cpu: Commit not drained.
15279500: system.cpu: Main CPU structures not drained.
15279500: system.cpu: Fetch not drained.
15279500: system.cpu: Decode not drained.
15279500: system.cpu: Rename not drained.
15279500: system.cpu.iew.lsq: Not drained, SQ not empty.
15279500: system.cpu: IEW not drained.
15279500: system.cpu: Commit not drained.
15280000: system.cpu: Main CPU structures not drained.
15280000: system.cpu: Fetch not drained.
15280000: system.cpu: Decode not drained.
15280000: system.cpu: Rename not drained.
15280000: system.cpu.iew.lsq: Not drained, SQ not empty.
15280000: system.cpu: IEW not drained.
15280000: system.cpu: Commit not drained.
15280500: system.cpu: Main CPU structures not drained.
15280500: system.cpu: Fetch not drained.
15280500: system.cpu: Decode not drained.
15280500: system.cpu: Rename not drained.
15280500: system.cpu.iew.lsq: Not drained, SQ not empty.
15280500: system.cpu: IEW not drained.
15280500: system.cpu: Commit not drained.
15281000: system.cpu: Main CPU structures not drained.
15281000: system.cpu: Fetch not drained.
15281000: system.cpu: Decode not drained.
15281000: system.cpu: Rename not drained.
15281000: system.cpu.iew.lsq: Not drained, SQ not empty.
15281000: system.cpu: IEW not drained.
15281000: system.cpu: Commit not drained.
15281500: system.cpu: Main CPU structures not drained.
15281500: system.cpu: Fetch not drained.
15281500: system.cpu: Decode not drained.
15281500: system.cpu: Rename not drained.
15281500: system.cpu.iew.lsq: Not drained, SQ not empty.
15281500: system.cpu: IEW not drained.
15281500: system.cpu: Commit not drained.
15282000: system.cpu: Main CPU structures not drained.
15282000: system.cpu: Fetch not drained.
15282000: system.cpu: Decode not drained.
15282000: system.cpu: Rename not drained.
15282000: system.cpu.iew.lsq: Not drained, SQ not empty.
15282000: system.cpu: IEW not drained.
15282000: system.cpu: Commit not drained.
15282500: system.cpu: Main CPU structures not drained.
15282500: system.cpu: Fetch not drained.
15282500: system.cpu: Decode not drained.
15282500: system.cpu: Rename not drained.
15282500: system.cpu.iew.lsq: Not drained, SQ not empty.
15282500: system.cpu: IEW not drained.
15282500: system.cpu: Commit not drained.
15283000: system.cpu: Main CPU structures not drained.
15283000: system.cpu: Fetch not drained.
15283000: system.cpu: Decode not drained.
15283000: system.cpu: Rename not drained.
15283000: system.cpu.iew.lsq: Not drained, SQ not empty.
15283000: system.cpu: IEW not drained.
15283000: system.cpu: Commit not drained.
15283500: system.cpu: Main CPU structures not drained.
15283500: system.cpu: Fetch not drained.
15283500: system.cpu: Decode not drained.
15283500: system.cpu: Rename not drained.
15283500: system.cpu.iew.lsq: Not drained, SQ not empty.
15283500: system.cpu: IEW not drained.
15283500: system.cpu: Commit not drained.
15284000: system.cpu: Main CPU structures not drained.
15284000: system.cpu: Fetch not drained.
15284000: system.cpu: Decode not drained.
15284000: system.cpu: Rename not drained.
15284000: system.cpu.iew.lsq: Not drained, SQ not empty.
15284000: system.cpu: IEW not drained.
15284000: system.cpu: Commit not drained.
15284500: system.cpu: Main CPU structures not drained.
15284500: system.cpu: Fetch not drained.
15284500: system.cpu: Decode not drained.
15284500: system.cpu: Rename not drained.
15284500: system.cpu.iew.lsq: Not drained, SQ not empty.
15284500: system.cpu: IEW not drained.
15284500: system.cpu: Commit not drained.
15285000: system.cpu: Main CPU structures not drained.
15285000: system.cpu: Fetch not drained.
15285000: system.cpu: Decode not drained.
15285000: system.cpu: Rename not drained.
15285000: system.cpu.iew.lsq: Not drained, SQ not empty.
15285000: system.cpu: IEW not drained.
15285000: system.cpu: Commit not drained.
15285500: system.cpu: Main CPU structures not drained.
15285500: system.cpu: Fetch not drained.
15285500: system.cpu: Decode not drained.
15285500: system.cpu: Rename not drained.
15285500: system.cpu.iew.lsq: Not drained, SQ not empty.
15285500: system.cpu: IEW not drained.
15285500: system.cpu: Commit not drained.
15286000: system.cpu: Main CPU structures not drained.
15286000: system.cpu: Fetch not drained.
15286000: system.cpu: Decode not drained.
15286000: system.cpu: Rename not drained.
15286000: system.cpu.iew.lsq: Not drained, SQ not empty.
15286000: system.cpu: IEW not drained.
15286000: system.cpu: Commit not drained.
15286500: system.cpu.commit: Draining: 0:(0xba5ec=>0xba5f0).(0=>1)
15286500: system.cpu.fetch: 0: Thread drained.
15286500: system.cpu: Main CPU structures not drained.
15286500: system.cpu: Fetch not drained.
15286500: system.cpu: Decode not drained.
15286500: system.cpu: Rename not drained.
15286500: system.cpu.iew.lsq: Not drained, SQ not empty.
15286500: system.cpu.iew: 0: Skid buffer not empty.
15286500: system.cpu: IEW not drained.
15286500: system.cpu: Commit not drained.
15287000: system.cpu: Main CPU structures not drained.
15287000: system.cpu: Fetch not drained.
15287000: system.cpu: Decode not drained.
15287000: system.cpu: Rename not drained.
15287000: system.cpu.iew.lsq: Not drained, SQ not empty.
15287000: system.cpu.iew: 0: Skid buffer not empty.
15287000: system.cpu: IEW not drained.
15287000: system.cpu: Commit not drained.
15287500: system.cpu: Fetch not drained.
15287500: system.cpu: Rename not drained.
15287500: system.cpu.iew.lsq: Not drained, SQ not empty.
15287500: system.cpu: IEW not drained.
15288000: system.cpu.iew.lsq: Not drained, SQ not empty.
15288000: system.cpu: IEW not drained.
15288500: system.cpu.iew.lsq: Not drained, SQ not empty.
15288500: system.cpu: IEW not drained.
15289000: system.cpu.iew.lsq: Not drained, SQ not empty.
15289000: system.cpu: IEW not drained.
15289500: system.cpu.iew.lsq: Not drained, SQ not empty.
15289500: system.cpu: IEW not drained.
15290000: system.cpu.iew.lsq: Not drained, SQ not empty.
15290000: system.cpu: IEW not drained.
15290500: system.cpu.iew.lsq: Not drained, SQ not empty.
15290500: system.cpu: IEW not drained.
15291000: system.cpu.iew.lsq: Not drained, SQ not empty.
15291000: system.cpu: IEW not drained.
15291500: system.cpu.iew.lsq: Not drained, SQ not empty.
15291500: system.cpu: IEW not drained.
15292000: system.cpu.iew.lsq: Not drained, SQ not empty.
15292000: system.cpu: IEW not drained.
15292500: system.cpu.iew.lsq: Not drained, SQ not empty.
15292500: system.cpu: IEW not drained.
15293000: system.cpu.iew.lsq: Not drained, SQ not empty.
15293000: system.cpu: IEW not drained.
15293500: system.cpu.iew.lsq: Not drained, SQ not empty.
15293500: system.cpu: IEW not drained.
15294000: system.cpu.iew.lsq: Not drained, SQ not empty.
15294000: system.cpu: IEW not drained.
15294500: system.cpu.iew.lsq: Not drained, SQ not empty.
15294500: system.cpu: IEW not drained.
15295000: system.cpu.iew.lsq: Not drained, SQ not empty.
15295000: system.cpu: IEW not drained.
15295500: system.cpu.iew.lsq: Not drained, SQ not empty.
15295500: system.cpu: IEW not drained.
15296000: system.cpu.iew.lsq: Not drained, SQ not empty.
15296000: system.cpu: IEW not drained.
15296500: system.cpu.iew.lsq: Not drained, SQ not empty.
15296500: system.cpu: IEW not drained.
15297000: system.cpu.iew.lsq: Not drained, SQ not empty.
15297000: system.cpu: IEW not drained.
15297500: system.cpu.iew.lsq: Not drained, SQ not empty.
15297500: system.cpu: IEW not drained.
15298000: system.cpu.iew.lsq: Not drained, SQ not empty.
15298000: system.cpu: IEW not drained.
15298500: system.cpu.iew.lsq: Not drained, SQ not empty.
15298500: system.cpu: IEW not drained.
15299000: system.cpu.iew.lsq: Not drained, SQ not empty.
15299000: system.cpu: IEW not drained.
15299500: system.cpu.iew.lsq: Not drained, SQ not empty.
15299500: system.cpu: IEW not drained.
15300000: system.cpu.iew.lsq: Not drained, SQ not empty.
15300000: system.cpu: IEW not drained.
15300500: system.cpu.iew.lsq: Not drained, SQ not empty.
15300500: system.cpu: IEW not drained.
15302500: system.cpu.iew.lsq: Not drained, SQ not empty.
15302500: system.cpu: IEW not drained.
15303000: system.cpu.iew.lsq: Not drained, SQ not empty.
15303000: system.cpu: IEW not drained.
15303500: system.cpu.iew.lsq: Not drained, SQ not empty.
15303500: system.cpu: IEW not drained.
15304000: system.cpu.iew.lsq: Not drained, SQ not empty.
15304000: system.cpu: IEW not drained.
15304500: system.cpu.iew.lsq: Not drained, SQ not empty.
15304500: system.cpu: IEW not drained.
15305000: system.cpu.iew.lsq: Not drained, SQ not empty.
15305000: system.cpu: IEW not drained.
15305500: system.cpu.iew.lsq: Not drained, SQ not empty.
15305500: system.cpu: IEW not drained.
15306000: system.cpu.iew.lsq: Not drained, SQ not empty.
15306000: system.cpu: IEW not drained.
15306500: system.cpu.iew.lsq: Not drained, SQ not empty.
15306500: system.cpu: IEW not drained.
15307000: system.cpu.iew.lsq: Not drained, SQ not empty.
15307000: system.cpu: IEW not drained.
15307500: system.cpu.iew.lsq: Not drained, SQ not empty.
15307500: system.cpu: IEW not drained.
*****TRANSFORM calling scale_btb original size btb:4096
*****TRANSFORM calling scale_btb new size btb:2048
*****TRANSFORM calling scale_TLB original size dtb:64 itb:64
*****TRANSFORM DONE calling scale_TLB new size dtb:32 itb:32
*****TRANSFORM calling scale_IQ
*****TRANSFORM DONE calling scale_IQ newIQentries:32
REGFILE PARAMS: baseFloatRegIndex:256 sizeOfintRegFile:256 baseCCRegIndex:512 sizeOffloatRegFile:256 totalNumRegs:1792 old_baseFloatRegIndex:4294967295 old_baseCCRegIndex:4294967295 old_totalNumRegs:4294967295
FREELIST ENTRIES: numFreeIntRegs:213 numFreeFloatRegs:96 numFreeCCRegs:1274
*****TRANSFORM going to print the reg mappings now!
*****INT REG mappings total TheISA::NumIntRegs:43
Archreg:0 Phyreg lookup:66 value:5180228
Archreg:1 Phyreg lookup:200 value:0
Archreg:2 Phyreg lookup:95 value:167104
Archreg:3 Phyreg lookup:251 value:5191684
Archreg:4 Phyreg lookup:253 value:0
Archreg:5 Phyreg lookup:123 value:4291532
Archreg:6 Phyreg lookup:48 value:5360388
Archreg:7 Phyreg lookup:98 value:4970092
Archreg:8 Phyreg lookup:78 value:0
Archreg:9 Phyreg lookup:206 value:3755008
Archreg:10 Phyreg lookup:53 value:5536516
Archreg:11 Phyreg lookup:7 value:4
Archreg:12 Phyreg lookup:107 value:0
Archreg:13 Phyreg lookup:235 value:3204447080
Archreg:14 Phyreg lookup:201 value:557335
Archreg:15 Phyreg lookup:128 value:0
Archreg:16 Phyreg lookup:16 value:0
Archreg:17 Phyreg lookup:17 value:0
Archreg:18 Phyreg lookup:18 value:0
Archreg:19 Phyreg lookup:19 value:0
Archreg:20 Phyreg lookup:20 value:0
Archreg:21 Phyreg lookup:21 value:0
Archreg:22 Phyreg lookup:22 value:0
Archreg:23 Phyreg lookup:23 value:0
Archreg:24 Phyreg lookup:24 value:0
Archreg:25 Phyreg lookup:25 value:0
Archreg:26 Phyreg lookup:26 value:0
Archreg:27 Phyreg lookup:27 value:0
Archreg:28 Phyreg lookup:28 value:0
Archreg:29 Phyreg lookup:29 value:0
Archreg:30 Phyreg lookup:30 value:0
Archreg:31 Phyreg lookup:31 value:0
Archreg:32 Phyreg lookup:32 value:0
Archreg:33 Phyreg lookup:33 value:0
Archreg:34 Phyreg lookup:34 value:0
Archreg:35 Phyreg lookup:60 value:767099
Archreg:36 Phyreg lookup:191 value:711663
Archreg:37 Phyreg lookup:37 value:0
Archreg:38 Phyreg lookup:38 value:0
Archreg:39 Phyreg lookup:39 value:0
Archreg:40 Phyreg lookup:40 value:0
Archreg:41 Phyreg lookup:41 value:0
Archreg:42 Phyreg lookup:42 value:0
*****FLOAT REG mappings total TheISA::NumFloatRegs:160
Archreg:0 Phyreg lookup:256 value:0
Archreg:1 Phyreg lookup:257 value:0
Archreg:2 Phyreg lookup:258 value:0
Archreg:3 Phyreg lookup:259 value:0
Archreg:4 Phyreg lookup:260 value:0
Archreg:5 Phyreg lookup:261 value:0
Archreg:6 Phyreg lookup:262 value:0
Archreg:7 Phyreg lookup:263 value:0
Archreg:8 Phyreg lookup:264 value:0
Archreg:9 Phyreg lookup:265 value:0
Archreg:10 Phyreg lookup:266 value:0
Archreg:11 Phyreg lookup:267 value:0
Archreg:12 Phyreg lookup:268 value:0
Archreg:13 Phyreg lookup:269 value:0
Archreg:14 Phyreg lookup:270 value:0
Archreg:15 Phyreg lookup:271 value:0
Archreg:16 Phyreg lookup:272 value:0
Archreg:17 Phyreg lookup:273 value:0
Archreg:18 Phyreg lookup:274 value:0
Archreg:19 Phyreg lookup:275 value:0
Archreg:20 Phyreg lookup:276 value:0
Archreg:21 Phyreg lookup:277 value:0
Archreg:22 Phyreg lookup:278 value:0
Archreg:23 Phyreg lookup:279 value:0
Archreg:24 Phyreg lookup:280 value:0
Archreg:25 Phyreg lookup:281 value:0
Archreg:26 Phyreg lookup:282 value:0
Archreg:27 Phyreg lookup:283 value:0
Archreg:28 Phyreg lookup:284 value:0
Archreg:29 Phyreg lookup:285 value:0
Archreg:30 Phyreg lookup:286 value:0
Archreg:31 Phyreg lookup:287 value:0
Archreg:32 Phyreg lookup:288 value:0
Archreg:33 Phyreg lookup:289 value:0
Archreg:34 Phyreg lookup:290 value:0
Archreg:35 Phyreg lookup:291 value:0
Archreg:36 Phyreg lookup:292 value:0
Archreg:37 Phyreg lookup:293 value:0
Archreg:38 Phyreg lookup:294 value:0
Archreg:39 Phyreg lookup:295 value:0
Archreg:40 Phyreg lookup:296 value:0
Archreg:41 Phyreg lookup:297 value:0
Archreg:42 Phyreg lookup:298 value:0
Archreg:43 Phyreg lookup:299 value:0
Archreg:44 Phyreg lookup:300 value:0
Archreg:45 Phyreg lookup:301 value:0
Archreg:46 Phyreg lookup:302 value:0
Archreg:47 Phyreg lookup:303 value:0
Archreg:48 Phyreg lookup:304 value:0
Archreg:49 Phyreg lookup:305 value:0
Archreg:50 Phyreg lookup:306 value:0
Archreg:51 Phyreg lookup:307 value:0
Archreg:52 Phyreg lookup:308 value:0
Archreg:53 Phyreg lookup:309 value:0
Archreg:54 Phyreg lookup:310 value:0
Archreg:55 Phyreg lookup:311 value:0
Archreg:56 Phyreg lookup:312 value:0
Archreg:57 Phyreg lookup:313 value:0
Archreg:58 Phyreg lookup:314 value:0
Archreg:59 Phyreg lookup:315 value:0
Archreg:60 Phyreg lookup:316 value:0
Archreg:61 Phyreg lookup:317 value:0
Archreg:62 Phyreg lookup:318 value:0
Archreg:63 Phyreg lookup:319 value:0
Archreg:64 Phyreg lookup:320 value:0
Archreg:65 Phyreg lookup:321 value:0
Archreg:66 Phyreg lookup:322 value:0
Archreg:67 Phyreg lookup:323 value:0
Archreg:68 Phyreg lookup:324 value:0
Archreg:69 Phyreg lookup:325 value:0
Archreg:70 Phyreg lookup:326 value:0
Archreg:71 Phyreg lookup:327 value:0
Archreg:72 Phyreg lookup:328 value:0
Archreg:73 Phyreg lookup:329 value:0
Archreg:74 Phyreg lookup:330 value:0
Archreg:75 Phyreg lookup:331 value:0
Archreg:76 Phyreg lookup:332 value:0
Archreg:77 Phyreg lookup:333 value:0
Archreg:78 Phyreg lookup:334 value:0
Archreg:79 Phyreg lookup:335 value:0
Archreg:80 Phyreg lookup:336 value:0
Archreg:81 Phyreg lookup:337 value:0
Archreg:82 Phyreg lookup:338 value:0
Archreg:83 Phyreg lookup:339 value:0
Archreg:84 Phyreg lookup:340 value:0
Archreg:85 Phyreg lookup:341 value:0
Archreg:86 Phyreg lookup:342 value:0
Archreg:87 Phyreg lookup:343 value:0
Archreg:88 Phyreg lookup:344 value:0
Archreg:89 Phyreg lookup:345 value:0
Archreg:90 Phyreg lookup:346 value:0
Archreg:91 Phyreg lookup:347 value:0
Archreg:92 Phyreg lookup:348 value:0
Archreg:93 Phyreg lookup:349 value:0
Archreg:94 Phyreg lookup:350 value:0
Archreg:95 Phyreg lookup:351 value:0
Archreg:96 Phyreg lookup:352 value:0
Archreg:97 Phyreg lookup:353 value:0
Archreg:98 Phyreg lookup:354 value:0
Archreg:99 Phyreg lookup:355 value:0
Archreg:100 Phyreg lookup:356 value:0
Archreg:101 Phyreg lookup:357 value:0
Archreg:102 Phyreg lookup:358 value:0
Archreg:103 Phyreg lookup:359 value:0
Archreg:104 Phyreg lookup:360 value:0
Archreg:105 Phyreg lookup:361 value:0
Archreg:106 Phyreg lookup:362 value:0
Archreg:107 Phyreg lookup:363 value:0
Archreg:108 Phyreg lookup:364 value:0
Archreg:109 Phyreg lookup:365 value:0
Archreg:110 Phyreg lookup:366 value:0
Archreg:111 Phyreg lookup:367 value:0
Archreg:112 Phyreg lookup:368 value:0
Archreg:113 Phyreg lookup:369 value:0
Archreg:114 Phyreg lookup:370 value:0
Archreg:115 Phyreg lookup:371 value:0
Archreg:116 Phyreg lookup:372 value:0
Archreg:117 Phyreg lookup:373 value:0
Archreg:118 Phyreg lookup:374 value:0
Archreg:119 Phyreg lookup:375 value:0
Archreg:120 Phyreg lookup:376 value:0
Archreg:121 Phyreg lookup:377 value:0
Archreg:122 Phyreg lookup:378 value:0
Archreg:123 Phyreg lookup:379 value:0
Archreg:124 Phyreg lookup:380 value:0
Archreg:125 Phyreg lookup:381 value:0
Archreg:126 Phyreg lookup:382 value:0
Archreg:127 Phyreg lookup:383 value:0
Archreg:128 Phyreg lookup:384 value:0
Archreg:129 Phyreg lookup:385 value:0
Archreg:130 Phyreg lookup:386 value:0
Archreg:131 Phyreg lookup:387 value:0
Archreg:132 Phyreg lookup:388 value:0
Archreg:133 Phyreg lookup:389 value:0
Archreg:134 Phyreg lookup:390 value:0
Archreg:135 Phyreg lookup:391 value:0
Archreg:136 Phyreg lookup:392 value:0
Archreg:137 Phyreg lookup:393 value:0
Archreg:138 Phyreg lookup:394 value:0
Archreg:139 Phyreg lookup:395 value:0
Archreg:140 Phyreg lookup:396 value:0
Archreg:141 Phyreg lookup:397 value:0
Archreg:142 Phyreg lookup:398 value:0
Archreg:143 Phyreg lookup:399 value:0
Archreg:144 Phyreg lookup:400 value:0
Archreg:145 Phyreg lookup:401 value:0
Archreg:146 Phyreg lookup:402 value:0
Archreg:147 Phyreg lookup:403 value:0
Archreg:148 Phyreg lookup:404 value:0
Archreg:149 Phyreg lookup:405 value:0
Archreg:150 Phyreg lookup:406 value:0
Archreg:151 Phyreg lookup:407 value:0
Archreg:152 Phyreg lookup:408 value:0
Archreg:153 Phyreg lookup:409 value:0
Archreg:154 Phyreg lookup:410 value:0
Archreg:155 Phyreg lookup:411 value:0
Archreg:156 Phyreg lookup:412 value:0
Archreg:157 Phyreg lookup:413 value:0
Archreg:158 Phyreg lookup:414 value:0
Archreg:159 Phyreg lookup:415 value:0
*****CC REG mappings total TheISA::NumCCRegs:6
Archreg:0 Phyreg lookup:1240 value:0
Archreg:1 Phyreg lookup:1241 value:1
Archreg:2 Phyreg lookup:1243 value:0
Archreg:3 Phyreg lookup:515 value:0
Archreg:4 Phyreg lookup:851 value:0
Archreg:5 Phyreg lookup:517 value:0
*****TRANSFORM calling functions to scale Phy Regfile
restrict_intreg_mapping BEFORE numFreeEntries:96
restrict_intreg_mapping: Skipping phy:66 against regfile->numIntPhysRegs():256 with tf_regfile_scale_factor:2
restrict_intreg_mapping: REMAPPING phy:200 against regfile->numIntPhysRegs():256 with tf_regfile_scale_factor:2
before numFreeRegs:213
after numFreeRegs:213
ACCEPTING new phy:5old phy:200
restrict_intreg_mapping: Skipping phy:95 against regfile->numIntPhysRegs():256 with tf_regfile_scale_factor:2
restrict_intreg_mapping: REMAPPING phy:251 against regfile->numIntPhysRegs():256 with tf_regfile_scale_factor:2
before numFreeRegs:213
after numFreeRegs:213
REJECTING new phy:250old phy:251
before numFreeRegs:213
after numFreeRegs:213
ACCEPTING new phy:14old phy:250
restrict_intreg_mapping: REMAPPING phy:253 against regfile->numIntPhysRegs():256 with tf_regfile_scale_factor:2
before numFreeRegs:213
after numFreeRegs:213
REJECTING new phy:136old phy:253
before numFreeRegs:213
after numFreeRegs:213
ACCEPTING new phy:125old phy:136
restrict_intreg_mapping: Skipping phy:123 against regfile->numIntPhysRegs():256 with tf_regfile_scale_factor:2
restrict_intreg_mapping: Skipping phy:48 against regfile->numIntPhysRegs():256 with tf_regfile_scale_factor:2
restrict_intreg_mapping: Skipping phy:98 against regfile->numIntPhysRegs():256 with tf_regfile_scale_factor:2
restrict_intreg_mapping: Skipping phy:78 against regfile->numIntPhysRegs():256 with tf_regfile_scale_factor:2
restrict_intreg_mapping: REMAPPING phy:206 against regfile->numIntPhysRegs():256 with tf_regfile_scale_factor:2
before numFreeRegs:213
after numFreeRegs:213
ACCEPTING new phy:116old phy:206
restrict_intreg_mapping: Skipping phy:53 against regfile->numIntPhysRegs():256 with tf_regfile_scale_factor:2
restrict_intreg_mapping: Skipping phy:7 against regfile->numIntPhysRegs():256 with tf_regfile_scale_factor:2
restrict_intreg_mapping: Skipping phy:107 against regfile->numIntPhysRegs():256 with tf_regfile_scale_factor:2
restrict_intreg_mapping: REMAPPING phy:235 against regfile->numIntPhysRegs():256 with tf_regfile_scale_factor:2
before numFreeRegs:213
after numFreeRegs:213
REJECTING new phy:213old phy:235
before numFreeRegs:213
after numFreeRegs:213
REJECTING new phy:132old phy:213
before numFreeRegs:213
after numFreeRegs:213
REJECTING new phy:223old phy:132
before numFreeRegs:213
after numFreeRegs:213
ACCEPTING new phy:68old phy:223
restrict_intreg_mapping: REMAPPING phy:201 against regfile->numIntPhysRegs():256 with tf_regfile_scale_factor:2
before numFreeRegs:213
after numFreeRegs:213
REJECTING new phy:157old phy:201
before numFreeRegs:213
after numFreeRegs:213
ACCEPTING new phy:0old phy:157
restrict_intreg_mapping: REMAPPING phy:128 against regfile->numIntPhysRegs():256 with tf_regfile_scale_factor:2
before numFreeRegs:213
after numFreeRegs:213
ACCEPTING new phy:90old phy:128
restrict_intreg_mapping: Skipping phy:16 against regfile->numIntPhysRegs():256 with tf_regfile_scale_factor:2
restrict_intreg_mapping: Skipping phy:17 against regfile->numIntPhysRegs():256 with tf_regfile_scale_factor:2
restrict_intreg_mapping: Skipping phy:18 against regfile->numIntPhysRegs():256 with tf_regfile_scale_factor:2
restrict_intreg_mapping: Skipping phy:19 against regfile->numIntPhysRegs():256 with tf_regfile_scale_factor:2
restrict_intreg_mapping: Skipping phy:20 against regfile->numIntPhysRegs():256 with tf_regfile_scale_factor:2
restrict_intreg_mapping: Skipping phy:21 against regfile->numIntPhysRegs():256 with tf_regfile_scale_factor:2
restrict_intreg_mapping: Skipping phy:22 against regfile->numIntPhysRegs():256 with tf_regfile_scale_factor:2
restrict_intreg_mapping: Skipping phy:23 against regfile->numIntPhysRegs():256 with tf_regfile_scale_factor:2
restrict_intreg_mapping: Skipping phy:24 against regfile->numIntPhysRegs():256 with tf_regfile_scale_factor:2
restrict_intreg_mapping: Skipping phy:25 against regfile->numIntPhysRegs():256 with tf_regfile_scale_factor:2
restrict_intreg_mapping: Skipping phy:26 against regfile->numIntPhysRegs():256 with tf_regfile_scale_factor:2
restrict_intreg_mapping: Skipping phy:27 against regfile->numIntPhysRegs():256 with tf_regfile_scale_factor:2
restrict_intreg_mapping: Skipping phy:28 against regfile->numIntPhysRegs():256 with tf_regfile_scale_factor:2
restrict_intreg_mapping: Skipping phy:29 against regfile->numIntPhysRegs():256 with tf_regfile_scale_factor:2
restrict_intreg_mapping: Skipping phy:30 against regfile->numIntPhysRegs():256 with tf_regfile_scale_factor:2
restrict_intreg_mapping: Skipping phy:31 against regfile->numIntPhysRegs():256 with tf_regfile_scale_factor:2
restrict_intreg_mapping: Skipping phy:32 against regfile->numIntPhysRegs():256 with tf_regfile_scale_factor:2
restrict_intreg_mapping: Skipping phy:33 against regfile->numIntPhysRegs():256 with tf_regfile_scale_factor:2
restrict_intreg_mapping: Skipping phy:34 against regfile->numIntPhysRegs():256 with tf_regfile_scale_factor:2
restrict_intreg_mapping: Skipping phy:60 against regfile->numIntPhysRegs():256 with tf_regfile_scale_factor:2
restrict_intreg_mapping: REMAPPING phy:191 against regfile->numIntPhysRegs():256 with tf_regfile_scale_factor:2
before numFreeRegs:213
after numFreeRegs:213
ACCEPTING new phy:105old phy:191
restrict_intreg_mapping: Skipping phy:37 against regfile->numIntPhysRegs():256 with tf_regfile_scale_factor:2
restrict_intreg_mapping: Skipping phy:38 against regfile->numIntPhysRegs():256 with tf_regfile_scale_factor:2
restrict_intreg_mapping: Skipping phy:39 against regfile->numIntPhysRegs():256 with tf_regfile_scale_factor:2
restrict_intreg_mapping: Skipping phy:40 against regfile->numIntPhysRegs():256 with tf_regfile_scale_factor:2
restrict_intreg_mapping: Skipping phy:41 against regfile->numIntPhysRegs():256 with tf_regfile_scale_factor:2
restrict_intreg_mapping: Skipping phy:42 against regfile->numIntPhysRegs():256 with tf_regfile_scale_factor:2
restrict_intreg_mapping AFTER numFreeEntries:96
restrict_floatreg_mapping BEFORE numFreeEntries:96
restrict_floatreg_mapping: Skipping phy:256 against regFile->numIntPhysRegs() + regfile->numFloatPhysRegs():512 with tf_regfile_scale_factor:1
restrict_floatreg_mapping: Skipping phy:257 against regFile->numIntPhysRegs() + regfile->numFloatPhysRegs():512 with tf_regfile_scale_factor:1
restrict_floatreg_mapping: Skipping phy:258 against regFile->numIntPhysRegs() + regfile->numFloatPhysRegs():512 with tf_regfile_scale_factor:1
restrict_floatreg_mapping: Skipping phy:259 against regFile->numIntPhysRegs() + regfile->numFloatPhysRegs():512 with tf_regfile_scale_factor:1
restrict_floatreg_mapping: Skipping phy:260 against regFile->numIntPhysRegs() + regfile->numFloatPhysRegs():512 with tf_regfile_scale_factor:1
restrict_floatreg_mapping: Skipping phy:261 against regFile->numIntPhysRegs() + regfile->numFloatPhysRegs():512 with tf_regfile_scale_factor:1
restrict_floatreg_mapping: Skipping phy:262 against regFile->numIntPhysRegs() + regfile->numFloatPhysRegs():512 with tf_regfile_scale_factor:1
restrict_floatreg_mapping: Skipping phy:263 against regFile->numIntPhysRegs() + regfile->numFloatPhysRegs():512 with tf_regfile_scale_factor:1
restrict_floatreg_mapping: Skipping phy:264 against regFile->numIntPhysRegs() + regfile->numFloatPhysRegs():512 with tf_regfile_scale_factor:1
restrict_floatreg_mapping: Skipping phy:265 against regFile->numIntPhysRegs() + regfile->numFloatPhysRegs():512 with tf_regfile_scale_factor:1
restrict_floatreg_mapping: Skipping phy:266 against regFile->numIntPhysRegs() + regfile->numFloatPhysRegs():512 with tf_regfile_scale_factor:1
restrict_floatreg_mapping: Skipping phy:267 against regFile->numIntPhysRegs() + regfile->numFloatPhysRegs():512 with tf_regfile_scale_factor:1
restrict_floatreg_mapping: Skipping phy:268 against regFile->numIntPhysRegs() + regfile->numFloatPhysRegs():512 with tf_regfile_scale_factor:1
restrict_floatreg_mapping: Skipping phy:269 against regFile->numIntPhysRegs() + regfile->numFloatPhysRegs():512 with tf_regfile_scale_factor:1
restrict_floatreg_mapping: Skipping phy:270 against regFile->numIntPhysRegs() + regfile->numFloatPhysRegs():512 with tf_regfile_scale_factor:1
restrict_floatreg_mapping: Skipping phy:271 against regFile->numIntPhysRegs() + regfile->numFloatPhysRegs():512 with tf_regfile_scale_factor:1
restrict_floatreg_mapping: Skipping phy:272 against regFile->numIntPhysRegs() + regfile->numFloatPhysRegs():512 with tf_regfile_scale_factor:1
restrict_floatreg_mapping: Skipping phy:273 against regFile->numIntPhysRegs() + regfile->numFloatPhysRegs():512 with tf_regfile_scale_factor:1
restrict_floatreg_mapping: Skipping phy:274 against regFile->numIntPhysRegs() + regfile->numFloatPhysRegs():512 with tf_regfile_scale_factor:1
restrict_floatreg_mapping: Skipping phy:275 against regFile->numIntPhysRegs() + regfile->numFloatPhysRegs():512 with tf_regfile_scale_factor:1
restrict_floatreg_mapping: Skipping phy:276 against regFile->numIntPhysRegs() + regfile->numFloatPhysRegs():512 with tf_regfile_scale_factor:1
restrict_floatreg_mapping: Skipping phy:277 against regFile->numIntPhysRegs() + regfile->numFloatPhysRegs():512 with tf_regfile_scale_factor:1
restrict_floatreg_mapping: Skipping phy:278 against regFile->numIntPhysRegs() + regfile->numFloatPhysRegs():512 with tf_regfile_scale_factor:1
restrict_floatreg_mapping: Skipping phy:279 against regFile->numIntPhysRegs() + regfile->numFloatPhysRegs():512 with tf_regfile_scale_factor:1
restrict_floatreg_mapping: Skipping phy:280 against regFile->numIntPhysRegs() + regfile->numFloatPhysRegs():512 with tf_regfile_scale_factor:1
restrict_floatreg_mapping: Skipping phy:281 against regFile->numIntPhysRegs() + regfile->numFloatPhysRegs():512 with tf_regfile_scale_factor:1
restrict_floatreg_mapping: Skipping phy:282 against regFile->numIntPhysRegs() + regfile->numFloatPhysRegs():512 with tf_regfile_scale_factor:1
restrict_floatreg_mapping: Skipping phy:283 against regFile->numIntPhysRegs() + regfile->numFloatPhysRegs():512 with tf_regfile_scale_factor:1
restrict_floatreg_mapping: Skipping phy:284 against regFile->numIntPhysRegs() + regfile->numFloatPhysRegs():512 with tf_regfile_scale_factor:1
restrict_floatreg_mapping: Skipping phy:285 against regFile->numIntPhysRegs() + regfile->numFloatPhysRegs():512 with tf_regfile_scale_factor:1
restrict_floatreg_mapping: Skipping phy:286 against regFile->numIntPhysRegs() + regfile->numFloatPhysRegs():512 with tf_regfile_scale_factor:1
restrict_floatreg_mapping: Skipping phy:287 against regFile->numIntPhysRegs() + regfile->numFloatPhysRegs():512 with tf_regfile_scale_factor:1
restrict_floatreg_mapping: Skipping phy:288 against regFile->numIntPhysRegs() + regfile->numFloatPhysRegs():512 with tf_regfile_scale_factor:1
restrict_floatreg_mapping: Skipping phy:289 against regFile->numIntPhysRegs() + regfile->numFloatPhysRegs():512 with tf_regfile_scale_factor:1
restrict_floatreg_mapping: Skipping phy:290 against regFile->numIntPhysRegs() + regfile->numFloatPhysRegs():512 with tf_regfile_scale_factor:1
restrict_floatreg_mapping: Skipping phy:291 against regFile->numIntPhysRegs() + regfile->numFloatPhysRegs():512 with tf_regfile_scale_factor:1
restrict_floatreg_mapping: Skipping phy:292 against regFile->numIntPhysRegs() + regfile->numFloatPhysRegs():512 with tf_regfile_scale_factor:1
restrict_floatreg_mapping: Skipping phy:293 against regFile->numIntPhysRegs() + regfile->numFloatPhysRegs():512 with tf_regfile_scale_factor:1
restrict_floatreg_mapping: Skipping phy:294 against regFile->numIntPhysRegs() + regfile->numFloatPhysRegs():512 with tf_regfile_scale_factor:1
restrict_floatreg_mapping: Skipping phy:295 against regFile->numIntPhysRegs() + regfile->numFloatPhysRegs():512 with tf_regfile_scale_factor:1
restrict_floatreg_mapping: Skipping phy:296 against regFile->numIntPhysRegs() + regfile->numFloatPhysRegs():512 with tf_regfile_scale_factor:1
restrict_floatreg_mapping: Skipping phy:297 against regFile->numIntPhysRegs() + regfile->numFloatPhysRegs():512 with tf_regfile_scale_factor:1
restrict_floatreg_mapping: Skipping phy:298 against regFile->numIntPhysRegs() + regfile->numFloatPhysRegs():512 with tf_regfile_scale_factor:1
restrict_floatreg_mapping: Skipping phy:299 against regFile->numIntPhysRegs() + regfile->numFloatPhysRegs():512 with tf_regfile_scale_factor:1
restrict_floatreg_mapping: Skipping phy:300 against regFile->numIntPhysRegs() + regfile->numFloatPhysRegs():512 with tf_regfile_scale_factor:1
restrict_floatreg_mapping: Skipping phy:301 against regFile->numIntPhysRegs() + regfile->numFloatPhysRegs():512 with tf_regfile_scale_factor:1
restrict_floatreg_mapping: Skipping phy:302 against regFile->numIntPhysRegs() + regfile->numFloatPhysRegs():512 with tf_regfile_scale_factor:1
restrict_floatreg_mapping: Skipping phy:303 against regFile->numIntPhysRegs() + regfile->numFloatPhysRegs():512 with tf_regfile_scale_factor:1
restrict_floatreg_mapping: Skipping phy:304 against regFile->numIntPhysRegs() + regfile->numFloatPhysRegs():512 with tf_regfile_scale_factor:1
restrict_floatreg_mapping: Skipping phy:305 against regFile->numIntPhysRegs() + regfile->numFloatPhysRegs():512 with tf_regfile_scale_factor:1
restrict_floatreg_mapping: Skipping phy:306 against regFile->numIntPhysRegs() + regfile->numFloatPhysRegs():512 with tf_regfile_scale_factor:1
restrict_floatreg_mapping: Skipping phy:307 against regFile->numIntPhysRegs() + regfile->numFloatPhysRegs():512 with tf_regfile_scale_factor:1
restrict_floatreg_mapping: Skipping phy:308 against regFile->numIntPhysRegs() + regfile->numFloatPhysRegs():512 with tf_regfile_scale_factor:1
restrict_floatreg_mapping: Skipping phy:309 against regFile->numIntPhysRegs() + regfile->numFloatPhysRegs():512 with tf_regfile_scale_factor:1
restrict_floatreg_mapping: Skipping phy:310 against regFile->numIntPhysRegs() + regfile->numFloatPhysRegs():512 with tf_regfile_scale_factor:1
restrict_floatreg_mapping: Skipping phy:311 against regFile->numIntPhysRegs() + regfile->numFloatPhysRegs():512 with tf_regfile_scale_factor:1
restrict_floatreg_mapping: Skipping phy:312 against regFile->numIntPhysRegs() + regfile->numFloatPhysRegs():512 with tf_regfile_scale_factor:1
restrict_floatreg_mapping: Skipping phy:313 against regFile->numIntPhysRegs() + regfile->numFloatPhysRegs():512 with tf_regfile_scale_factor:1
restrict_floatreg_mapping: Skipping phy:314 against regFile->numIntPhysRegs() + regfile->numFloatPhysRegs():512 with tf_regfile_scale_factor:1
restrict_floatreg_mapping: Skipping phy:315 against regFile->numIntPhysRegs() + regfile->numFloatPhysRegs():512 with tf_regfile_scale_factor:1
restrict_floatreg_mapping: Skipping phy:316 against regFile->numIntPhysRegs() + regfile->numFloatPhysRegs():512 with tf_regfile_scale_factor:1
restrict_floatreg_mapping: Skipping phy:317 against regFile->numIntPhysRegs() + regfile->numFloatPhysRegs():512 with tf_regfile_scale_factor:1
restrict_floatreg_mapping: Skipping phy:318 against regFile->numIntPhysRegs() + regfile->numFloatPhysRegs():512 with tf_regfile_scale_factor:1
restrict_floatreg_mapping: Skipping phy:319 against regFile->numIntPhysRegs() + regfile->numFloatPhysRegs():512 with tf_regfile_scale_factor:1
restrict_floatreg_mapping: Skipping phy:320 against regFile->numIntPhysRegs() + regfile->numFloatPhysRegs():512 with tf_regfile_scale_factor:1
restrict_floatreg_mapping: Skipping phy:321 against regFile->numIntPhysRegs() + regfile->numFloatPhysRegs():512 with tf_regfile_scale_factor:1
restrict_floatreg_mapping: Skipping phy:322 against regFile->numIntPhysRegs() + regfile->numFloatPhysRegs():512 with tf_regfile_scale_factor:1
restrict_floatreg_mapping: Skipping phy:323 against regFile->numIntPhysRegs() + regfile->numFloatPhysRegs():512 with tf_regfile_scale_factor:1
restrict_floatreg_mapping: Skipping phy:324 against regFile->numIntPhysRegs() + regfile->numFloatPhysRegs():512 with tf_regfile_scale_factor:1
restrict_floatreg_mapping: Skipping phy:325 against regFile->numIntPhysRegs() + regfile->numFloatPhysRegs():512 with tf_regfile_scale_factor:1
restrict_floatreg_mapping: Skipping phy:326 against regFile->numIntPhysRegs() + regfile->numFloatPhysRegs():512 with tf_regfile_scale_factor:1
restrict_floatreg_mapping: Skipping phy:327 against regFile->numIntPhysRegs() + regfile->numFloatPhysRegs():512 with tf_regfile_scale_factor:1
restrict_floatreg_mapping: Skipping phy:328 against regFile->numIntPhysRegs() + regfile->numFloatPhysRegs():512 with tf_regfile_scale_factor:1
restrict_floatreg_mapping: Skipping phy:329 against regFile->numIntPhysRegs() + regfile->numFloatPhysRegs():512 with tf_regfile_scale_factor:1
restrict_floatreg_mapping: Skipping phy:330 against regFile->numIntPhysRegs() + regfile->numFloatPhysRegs():512 with tf_regfile_scale_factor:1
restrict_floatreg_mapping: Skipping phy:331 against regFile->numIntPhysRegs() + regfile->numFloatPhysRegs():512 with tf_regfile_scale_factor:1
restrict_floatreg_mapping: Skipping phy:332 against regFile->numIntPhysRegs() + regfile->numFloatPhysRegs():512 with tf_regfile_scale_factor:1
restrict_floatreg_mapping: Skipping phy:333 against regFile->numIntPhysRegs() + regfile->numFloatPhysRegs():512 with tf_regfile_scale_factor:1
restrict_floatreg_mapping: Skipping phy:334 against regFile->numIntPhysRegs() + regfile->numFloatPhysRegs():512 with tf_regfile_scale_factor:1
restrict_floatreg_mapping: Skipping phy:335 against regFile->numIntPhysRegs() + regfile->numFloatPhysRegs():512 with tf_regfile_scale_factor:1
restrict_floatreg_mapping: Skipping phy:336 against regFile->numIntPhysRegs() + regfile->numFloatPhysRegs():512 with tf_regfile_scale_factor:1
restrict_floatreg_mapping: Skipping phy:337 against regFile->numIntPhysRegs() + regfile->numFloatPhysRegs():512 with tf_regfile_scale_factor:1
restrict_floatreg_mapping: Skipping phy:338 against regFile->numIntPhysRegs() + regfile->numFloatPhysRegs():512 with tf_regfile_scale_factor:1
restrict_floatreg_mapping: Skipping phy:339 against regFile->numIntPhysRegs() + regfile->numFloatPhysRegs():512 with tf_regfile_scale_factor:1
restrict_floatreg_mapping: Skipping phy:340 against regFile->numIntPhysRegs() + regfile->numFloatPhysRegs():512 with tf_regfile_scale_factor:1
restrict_floatreg_mapping: Skipping phy:341 against regFile->numIntPhysRegs() + regfile->numFloatPhysRegs():512 with tf_regfile_scale_factor:1
restrict_floatreg_mapping: Skipping phy:342 against regFile->numIntPhysRegs() + regfile->numFloatPhysRegs():512 with tf_regfile_scale_factor:1
restrict_floatreg_mapping: Skipping phy:343 against regFile->numIntPhysRegs() + regfile->numFloatPhysRegs():512 with tf_regfile_scale_factor:1
restrict_floatreg_mapping: Skipping phy:344 against regFile->numIntPhysRegs() + regfile->numFloatPhysRegs():512 with tf_regfile_scale_factor:1
restrict_floatreg_mapping: Skipping phy:345 against regFile->numIntPhysRegs() + regfile->numFloatPhysRegs():512 with tf_regfile_scale_factor:1
restrict_floatreg_mapping: Skipping phy:346 against regFile->numIntPhysRegs() + regfile->numFloatPhysRegs():512 with tf_regfile_scale_factor:1
restrict_floatreg_mapping: Skipping phy:347 against regFile->numIntPhysRegs() + regfile->numFloatPhysRegs():512 with tf_regfile_scale_factor:1
restrict_floatreg_mapping: Skipping phy:348 against regFile->numIntPhysRegs() + regfile->numFloatPhysRegs():512 with tf_regfile_scale_factor:1
restrict_floatreg_mapping: Skipping phy:349 against regFile->numIntPhysRegs() + regfile->numFloatPhysRegs():512 with tf_regfile_scale_factor:1
restrict_floatreg_mapping: Skipping phy:350 against regFile->numIntPhysRegs() + regfile->numFloatPhysRegs():512 with tf_regfile_scale_factor:1
restrict_floatreg_mapping: Skipping phy:351 against regFile->numIntPhysRegs() + regfile->numFloatPhysRegs():512 with tf_regfile_scale_factor:1
restrict_floatreg_mapping: Skipping phy:352 against regFile->numIntPhysRegs() + regfile->numFloatPhysRegs():512 with tf_regfile_scale_factor:1
restrict_floatreg_mapping: Skipping phy:353 against regFile->numIntPhysRegs() + regfile->numFloatPhysRegs():512 with tf_regfile_scale_factor:1
restrict_floatreg_mapping: Skipping phy:354 against regFile->numIntPhysRegs() + regfile->numFloatPhysRegs():512 with tf_regfile_scale_factor:1
restrict_floatreg_mapping: Skipping phy:355 against regFile->numIntPhysRegs() + regfile->numFloatPhysRegs():512 with tf_regfile_scale_factor:1
restrict_floatreg_mapping: Skipping phy:356 against regFile->numIntPhysRegs() + regfile->numFloatPhysRegs():512 with tf_regfile_scale_factor:1
restrict_floatreg_mapping: Skipping phy:357 against regFile->numIntPhysRegs() + regfile->numFloatPhysRegs():512 with tf_regfile_scale_factor:1
restrict_floatreg_mapping: Skipping phy:358 against regFile->numIntPhysRegs() + regfile->numFloatPhysRegs():512 with tf_regfile_scale_factor:1
restrict_floatreg_mapping: Skipping phy:359 against regFile->numIntPhysRegs() + regfile->numFloatPhysRegs():512 with tf_regfile_scale_factor:1
restrict_floatreg_mapping: Skipping phy:360 against regFile->numIntPhysRegs() + regfile->numFloatPhysRegs():512 with tf_regfile_scale_factor:1
restrict_floatreg_mapping: Skipping phy:361 against regFile->numIntPhysRegs() + regfile->numFloatPhysRegs():512 with tf_regfile_scale_factor:1
restrict_floatreg_mapping: Skipping phy:362 against regFile->numIntPhysRegs() + regfile->numFloatPhysRegs():512 with tf_regfile_scale_factor:1
restrict_floatreg_mapping: Skipping phy:363 against regFile->numIntPhysRegs() + regfile->numFloatPhysRegs():512 with tf_regfile_scale_factor:1
restrict_floatreg_mapping: Skipping phy:364 against regFile->numIntPhysRegs() + regfile->numFloatPhysRegs():512 with tf_regfile_scale_factor:1
restrict_floatreg_mapping: Skipping phy:365 against regFile->numIntPhysRegs() + regfile->numFloatPhysRegs():512 with tf_regfile_scale_factor:1
restrict_floatreg_mapping: Skipping phy:366 against regFile->numIntPhysRegs() + regfile->numFloatPhysRegs():512 with tf_regfile_scale_factor:1
restrict_floatreg_mapping: Skipping phy:367 against regFile->numIntPhysRegs() + regfile->numFloatPhysRegs():512 with tf_regfile_scale_factor:1
restrict_floatreg_mapping: Skipping phy:368 against regFile->numIntPhysRegs() + regfile->numFloatPhysRegs():512 with tf_regfile_scale_factor:1
restrict_floatreg_mapping: Skipping phy:369 against regFile->numIntPhysRegs() + regfile->numFloatPhysRegs():512 with tf_regfile_scale_factor:1
restrict_floatreg_mapping: Skipping phy:370 against regFile->numIntPhysRegs() + regfile->numFloatPhysRegs():512 with tf_regfile_scale_factor:1
restrict_floatreg_mapping: Skipping phy:371 against regFile->numIntPhysRegs() + regfile->numFloatPhysRegs():512 with tf_regfile_scale_factor:1
restrict_floatreg_mapping: Skipping phy:372 against regFile->numIntPhysRegs() + regfile->numFloatPhysRegs():512 with tf_regfile_scale_factor:1
restrict_floatreg_mapping: Skipping phy:373 against regFile->numIntPhysRegs() + regfile->numFloatPhysRegs():512 with tf_regfile_scale_factor:1
restrict_floatreg_mapping: Skipping phy:374 against regFile->numIntPhysRegs() + regfile->numFloatPhysRegs():512 with tf_regfile_scale_factor:1
restrict_floatreg_mapping: Skipping phy:375 against regFile->numIntPhysRegs() + regfile->numFloatPhysRegs():512 with tf_regfile_scale_factor:1
restrict_floatreg_mapping: Skipping phy:376 against regFile->numIntPhysRegs() + regfile->numFloatPhysRegs():512 with tf_regfile_scale_factor:1
restrict_floatreg_mapping: Skipping phy:377 against regFile->numIntPhysRegs() + regfile->numFloatPhysRegs():512 with tf_regfile_scale_factor:1
restrict_floatreg_mapping: Skipping phy:378 against regFile->numIntPhysRegs() + regfile->numFloatPhysRegs():512 with tf_regfile_scale_factor:1
restrict_floatreg_mapping: Skipping phy:379 against regFile->numIntPhysRegs() + regfile->numFloatPhysRegs():512 with tf_regfile_scale_factor:1
restrict_floatreg_mapping: Skipping phy:380 against regFile->numIntPhysRegs() + regfile->numFloatPhysRegs():512 with tf_regfile_scale_factor:1
restrict_floatreg_mapping: Skipping phy:381 against regFile->numIntPhysRegs() + regfile->numFloatPhysRegs():512 with tf_regfile_scale_factor:1
restrict_floatreg_mapping: Skipping phy:382 against regFile->numIntPhysRegs() + regfile->numFloatPhysRegs():512 with tf_regfile_scale_factor:1
restrict_floatreg_mapping: Skipping phy:383 against regFile->numIntPhysRegs() + regfile->numFloatPhysRegs():512 with tf_regfile_scale_factor:1
restrict_floatreg_mapping: Skipping phy:384 against regFile->numIntPhysRegs() + regfile->numFloatPhysRegs():512 with tf_regfile_scale_factor:1
restrict_floatreg_mapping: Skipping phy:385 against regFile->numIntPhysRegs() + regfile->numFloatPhysRegs():512 with tf_regfile_scale_factor:1
restrict_floatreg_mapping: Skipping phy:386 against regFile->numIntPhysRegs() + regfile->numFloatPhysRegs():512 with tf_regfile_scale_factor:1
restrict_floatreg_mapping: Skipping phy:387 against regFile->numIntPhysRegs() + regfile->numFloatPhysRegs():512 with tf_regfile_scale_factor:1
restrict_floatreg_mapping: Skipping phy:388 against regFile->numIntPhysRegs() + regfile->numFloatPhysRegs():512 with tf_regfile_scale_factor:1
restrict_floatreg_mapping: Skipping phy:389 against regFile->numIntPhysRegs() + regfile->numFloatPhysRegs():512 with tf_regfile_scale_factor:1
restrict_floatreg_mapping: Skipping phy:390 against regFile->numIntPhysRegs() + regfile->numFloatPhysRegs():512 with tf_regfile_scale_factor:1
restrict_floatreg_mapping: Skipping phy:391 against regFile->numIntPhysRegs() + regfile->numFloatPhysRegs():512 with tf_regfile_scale_factor:1
restrict_floatreg_mapping: Skipping phy:392 against regFile->numIntPhysRegs() + regfile->numFloatPhysRegs():512 with tf_regfile_scale_factor:1
restrict_floatreg_mapping: Skipping phy:393 against regFile->numIntPhysRegs() + regfile->numFloatPhysRegs():512 with tf_regfile_scale_factor:1
restrict_floatreg_mapping: Skipping phy:394 against regFile->numIntPhysRegs() + regfile->numFloatPhysRegs():512 with tf_regfile_scale_factor:1
restrict_floatreg_mapping: Skipping phy:395 against regFile->numIntPhysRegs() + regfile->numFloatPhysRegs():512 with tf_regfile_scale_factor:1
restrict_floatreg_mapping: Skipping phy:396 against regFile->numIntPhysRegs() + regfile->numFloatPhysRegs():512 with tf_regfile_scale_factor:1
restrict_floatreg_mapping: Skipping phy:397 against regFile->numIntPhysRegs() + regfile->numFloatPhysRegs():512 with tf_regfile_scale_factor:1
restrict_floatreg_mapping: Skipping phy:398 against regFile->numIntPhysRegs() + regfile->numFloatPhysRegs():512 with tf_regfile_scale_factor:1
restrict_floatreg_mapping: Skipping phy:399 against regFile->numIntPhysRegs() + regfile->numFloatPhysRegs():512 with tf_regfile_scale_factor:1
restrict_floatreg_mapping: Skipping phy:400 against regFile->numIntPhysRegs() + regfile->numFloatPhysRegs():512 with tf_regfile_scale_factor:1
restrict_floatreg_mapping: Skipping phy:401 against regFile->numIntPhysRegs() + regfile->numFloatPhysRegs():512 with tf_regfile_scale_factor:1
restrict_floatreg_mapping: Skipping phy:402 against regFile->numIntPhysRegs() + regfile->numFloatPhysRegs():512 with tf_regfile_scale_factor:1
restrict_floatreg_mapping: Skipping phy:403 against regFile->numIntPhysRegs() + regfile->numFloatPhysRegs():512 with tf_regfile_scale_factor:1
restrict_floatreg_mapping: Skipping phy:404 against regFile->numIntPhysRegs() + regfile->numFloatPhysRegs():512 with tf_regfile_scale_factor:1
restrict_floatreg_mapping: Skipping phy:405 against regFile->numIntPhysRegs() + regfile->numFloatPhysRegs():512 with tf_regfile_scale_factor:1
restrict_floatreg_mapping: Skipping phy:406 against regFile->numIntPhysRegs() + regfile->numFloatPhysRegs():512 with tf_regfile_scale_factor:1
restrict_floatreg_mapping: Skipping phy:407 against regFile->numIntPhysRegs() + regfile->numFloatPhysRegs():512 with tf_regfile_scale_factor:1
restrict_floatreg_mapping: Skipping phy:408 against regFile->numIntPhysRegs() + regfile->numFloatPhysRegs():512 with tf_regfile_scale_factor:1
restrict_floatreg_mapping: Skipping phy:409 against regFile->numIntPhysRegs() + regfile->numFloatPhysRegs():512 with tf_regfile_scale_factor:1
restrict_floatreg_mapping: Skipping phy:410 against regFile->numIntPhysRegs() + regfile->numFloatPhysRegs():512 with tf_regfile_scale_factor:1
restrict_floatreg_mapping: Skipping phy:411 against regFile->numIntPhysRegs() + regfile->numFloatPhysRegs():512 with tf_regfile_scale_factor:1
restrict_floatreg_mapping: Skipping phy:412 against regFile->numIntPhysRegs() + regfile->numFloatPhysRegs():512 with tf_regfile_scale_factor:1
restrict_floatreg_mapping: Skipping phy:413 against regFile->numIntPhysRegs() + regfile->numFloatPhysRegs():512 with tf_regfile_scale_factor:1
restrict_floatreg_mapping: Skipping phy:414 against regFile->numIntPhysRegs() + regfile->numFloatPhysRegs():512 with tf_regfile_scale_factor:1
restrict_floatreg_mapping: Skipping phy:415 against regFile->numIntPhysRegs() + regfile->numFloatPhysRegs():512 with tf_regfile_scale_factor:1
restrict_floatreg_mapping AFTER numFreeEntries:96
restrict_ccreg_mapping BEFORE numFreeEntries:96
restrict_ccreg_mapping: Skipping phy:1240 against regFile->numIntPhysRegs() + regFile->numFloatPhysRegs()+ regfile->numCCPhysRegs():1792 with tf_regfile_scale_factor:1
restrict_ccreg_mapping: Skipping phy:1241 against regFile->numIntPhysRegs() + regFile->numFloatPhysRegs()+ regfile->numCCPhysRegs():1792 with tf_regfile_scale_factor:1
restrict_ccreg_mapping: Skipping phy:1243 against regFile->numIntPhysRegs() + regFile->numFloatPhysRegs()+ regfile->numCCPhysRegs():1792 with tf_regfile_scale_factor:1
restrict_ccreg_mapping: Skipping phy:515 against regFile->numIntPhysRegs() + regFile->numFloatPhysRegs()+ regfile->numCCPhysRegs():1792 with tf_regfile_scale_factor:1
restrict_ccreg_mapping: Skipping phy:851 against regFile->numIntPhysRegs() + regFile->numFloatPhysRegs()+ regfile->numCCPhysRegs():1792 with tf_regfile_scale_factor:1
restrict_ccreg_mapping: Skipping phy:517 against regFile->numIntPhysRegs() + regFile->numFloatPhysRegs()+ regfile->numCCPhysRegs():1792 with tf_regfile_scale_factor:1
restrict_ccreg_mapping AFTER numFreeEntries:96
*****TRANSFORM going to print the reg mappings now!
*****INT REG mappings total TheISA::NumIntRegs:43
Archreg:0 Phyreg lookup:66 value:5180228
Archreg:1 Phyreg lookup:5 value:0
Archreg:2 Phyreg lookup:95 value:167104
Archreg:3 Phyreg lookup:14 value:5191684
Archreg:4 Phyreg lookup:125 value:0
Archreg:5 Phyreg lookup:123 value:4291532
Archreg:6 Phyreg lookup:48 value:5360388
Archreg:7 Phyreg lookup:98 value:4970092
Archreg:8 Phyreg lookup:78 value:0
Archreg:9 Phyreg lookup:116 value:3755008
Archreg:10 Phyreg lookup:53 value:5536516
Archreg:11 Phyreg lookup:7 value:4
Archreg:12 Phyreg lookup:107 value:0
Archreg:13 Phyreg lookup:68 value:3204447080
Archreg:14 Phyreg lookup:0 value:557335
Archreg:15 Phyreg lookup:90 value:0
Archreg:16 Phyreg lookup:16 value:0
Archreg:17 Phyreg lookup:17 value:0
Archreg:18 Phyreg lookup:18 value:0
Archreg:19 Phyreg lookup:19 value:0
Archreg:20 Phyreg lookup:20 value:0
Archreg:21 Phyreg lookup:21 value:0
Archreg:22 Phyreg lookup:22 value:0
Archreg:23 Phyreg lookup:23 value:0
Archreg:24 Phyreg lookup:24 value:0
Archreg:25 Phyreg lookup:25 value:0
Archreg:26 Phyreg lookup:26 value:0
Archreg:27 Phyreg lookup:27 value:0
Archreg:28 Phyreg lookup:28 value:0
Archreg:29 Phyreg lookup:29 value:0
Archreg:30 Phyreg lookup:30 value:0
Archreg:31 Phyreg lookup:31 value:0
Archreg:32 Phyreg lookup:32 value:0
Archreg:33 Phyreg lookup:33 value:0
Archreg:34 Phyreg lookup:34 value:0
Archreg:35 Phyreg lookup:60 value:767099
Archreg:36 Phyreg lookup:105 value:711663
Archreg:37 Phyreg lookup:37 value:0
Archreg:38 Phyreg lookup:38 value:0
Archreg:39 Phyreg lookup:39 value:0
Archreg:40 Phyreg lookup:40 value:0
Archreg:41 Phyreg lookup:41 value:0
Archreg:42 Phyreg lookup:42 value:0
*****FLOAT REG mappings total TheISA::NumFloatRegs:160
Archreg:0 Phyreg lookup:256 value:0
Archreg:1 Phyreg lookup:257 value:0
Archreg:2 Phyreg lookup:258 value:0
Archreg:3 Phyreg lookup:259 value:0
Archreg:4 Phyreg lookup:260 value:0
Archreg:5 Phyreg lookup:261 value:0
Archreg:6 Phyreg lookup:262 value:0
Archreg:7 Phyreg lookup:263 value:0
Archreg:8 Phyreg lookup:264 value:0
Archreg:9 Phyreg lookup:265 value:0
Archreg:10 Phyreg lookup:266 value:0
Archreg:11 Phyreg lookup:267 value:0
Archreg:12 Phyreg lookup:268 value:0
Archreg:13 Phyreg lookup:269 value:0
Archreg:14 Phyreg lookup:270 value:0
Archreg:15 Phyreg lookup:271 value:0
Archreg:16 Phyreg lookup:272 value:0
Archreg:17 Phyreg lookup:273 value:0
Archreg:18 Phyreg lookup:274 value:0
Archreg:19 Phyreg lookup:275 value:0
Archreg:20 Phyreg lookup:276 value:0
Archreg:21 Phyreg lookup:277 value:0
Archreg:22 Phyreg lookup:278 value:0
Archreg:23 Phyreg lookup:279 value:0
Archreg:24 Phyreg lookup:280 value:0
Archreg:25 Phyreg lookup:281 value:0
Archreg:26 Phyreg lookup:282 value:0
Archreg:27 Phyreg lookup:283 value:0
Archreg:28 Phyreg lookup:284 value:0
Archreg:29 Phyreg lookup:285 value:0
Archreg:30 Phyreg lookup:286 value:0
Archreg:31 Phyreg lookup:287 value:0
Archreg:32 Phyreg lookup:288 value:0
Archreg:33 Phyreg lookup:289 value:0
Archreg:34 Phyreg lookup:290 value:0
Archreg:35 Phyreg lookup:291 value:0
Archreg:36 Phyreg lookup:292 value:0
Archreg:37 Phyreg lookup:293 value:0
Archreg:38 Phyreg lookup:294 value:0
Archreg:39 Phyreg lookup:295 value:0
Archreg:40 Phyreg lookup:296 value:0
Archreg:41 Phyreg lookup:297 value:0
Archreg:42 Phyreg lookup:298 value:0
Archreg:43 Phyreg lookup:299 value:0
Archreg:44 Phyreg lookup:300 value:0
Archreg:45 Phyreg lookup:301 value:0
Archreg:46 Phyreg lookup:302 value:0
Archreg:47 Phyreg lookup:303 value:0
Archreg:48 Phyreg lookup:304 value:0
Archreg:49 Phyreg lookup:305 value:0
Archreg:50 Phyreg lookup:306 value:0
Archreg:51 Phyreg lookup:307 value:0
Archreg:52 Phyreg lookup:308 value:0
Archreg:53 Phyreg lookup:309 value:0
Archreg:54 Phyreg lookup:310 value:0
Archreg:55 Phyreg lookup:311 value:0
Archreg:56 Phyreg lookup:312 value:0
Archreg:57 Phyreg lookup:313 value:0
Archreg:58 Phyreg lookup:314 value:0
Archreg:59 Phyreg lookup:315 value:0
Archreg:60 Phyreg lookup:316 value:0
Archreg:61 Phyreg lookup:317 value:0
Archreg:62 Phyreg lookup:318 value:0
Archreg:63 Phyreg lookup:319 value:0
Archreg:64 Phyreg lookup:320 value:0
Archreg:65 Phyreg lookup:321 value:0
Archreg:66 Phyreg lookup:322 value:0
Archreg:67 Phyreg lookup:323 value:0
Archreg:68 Phyreg lookup:324 value:0
Archreg:69 Phyreg lookup:325 value:0
Archreg:70 Phyreg lookup:326 value:0
Archreg:71 Phyreg lookup:327 value:0
Archreg:72 Phyreg lookup:328 value:0
Archreg:73 Phyreg lookup:329 value:0
Archreg:74 Phyreg lookup:330 value:0
Archreg:75 Phyreg lookup:331 value:0
Archreg:76 Phyreg lookup:332 value:0
Archreg:77 Phyreg lookup:333 value:0
Archreg:78 Phyreg lookup:334 value:0
Archreg:79 Phyreg lookup:335 value:0
Archreg:80 Phyreg lookup:336 value:0
Archreg:81 Phyreg lookup:337 value:0
Archreg:82 Phyreg lookup:338 value:0
Archreg:83 Phyreg lookup:339 value:0
Archreg:84 Phyreg lookup:340 value:0
Archreg:85 Phyreg lookup:341 value:0
Archreg:86 Phyreg lookup:342 value:0
Archreg:87 Phyreg lookup:343 value:0
Archreg:88 Phyreg lookup:344 value:0
Archreg:89 Phyreg lookup:345 value:0
Archreg:90 Phyreg lookup:346 value:0
Archreg:91 Phyreg lookup:347 value:0
Archreg:92 Phyreg lookup:348 value:0
Archreg:93 Phyreg lookup:349 value:0
Archreg:94 Phyreg lookup:350 value:0
Archreg:95 Phyreg lookup:351 value:0
Archreg:96 Phyreg lookup:352 value:0
Archreg:97 Phyreg lookup:353 value:0
Archreg:98 Phyreg lookup:354 value:0
Archreg:99 Phyreg lookup:355 value:0
Archreg:100 Phyreg lookup:356 value:0
Archreg:101 Phyreg lookup:357 value:0
Archreg:102 Phyreg lookup:358 value:0
Archreg:103 Phyreg lookup:359 value:0
Archreg:104 Phyreg lookup:360 value:0
Archreg:105 Phyreg lookup:361 value:0
Archreg:106 Phyreg lookup:362 value:0
Archreg:107 Phyreg lookup:363 value:0
Archreg:108 Phyreg lookup:364 value:0
Archreg:109 Phyreg lookup:365 value:0
Archreg:110 Phyreg lookup:366 value:0
Archreg:111 Phyreg lookup:367 value:0
Archreg:112 Phyreg lookup:368 value:0
Archreg:113 Phyreg lookup:369 value:0
Archreg:114 Phyreg lookup:370 value:0
Archreg:115 Phyreg lookup:371 value:0
Archreg:116 Phyreg lookup:372 value:0
Archreg:117 Phyreg lookup:373 value:0
Archreg:118 Phyreg lookup:374 value:0
Archreg:119 Phyreg lookup:375 value:0
Archreg:120 Phyreg lookup:376 value:0
Archreg:121 Phyreg lookup:377 value:0
Archreg:122 Phyreg lookup:378 value:0
Archreg:123 Phyreg lookup:379 value:0
Archreg:124 Phyreg lookup:380 value:0
Archreg:125 Phyreg lookup:381 value:0
Archreg:126 Phyreg lookup:382 value:0
Archreg:127 Phyreg lookup:383 value:0
Archreg:128 Phyreg lookup:384 value:0
Archreg:129 Phyreg lookup:385 value:0
Archreg:130 Phyreg lookup:386 value:0
Archreg:131 Phyreg lookup:387 value:0
Archreg:132 Phyreg lookup:388 value:0
Archreg:133 Phyreg lookup:389 value:0
Archreg:134 Phyreg lookup:390 value:0
Archreg:135 Phyreg lookup:391 value:0
Archreg:136 Phyreg lookup:392 value:0
Archreg:137 Phyreg lookup:393 value:0
Archreg:138 Phyreg lookup:394 value:0
Archreg:139 Phyreg lookup:395 value:0
Archreg:140 Phyreg lookup:396 value:0
Archreg:141 Phyreg lookup:397 value:0
Archreg:142 Phyreg lookup:398 value:0
Archreg:143 Phyreg lookup:399 value:0
Archreg:144 Phyreg lookup:400 value:0
Archreg:145 Phyreg lookup:401 value:0
Archreg:146 Phyreg lookup:402 value:0
Archreg:147 Phyreg lookup:403 value:0
Archreg:148 Phyreg lookup:404 value:0
Archreg:149 Phyreg lookup:405 value:0
Archreg:150 Phyreg lookup:406 value:0
Archreg:151 Phyreg lookup:407 value:0
Archreg:152 Phyreg lookup:408 value:0
Archreg:153 Phyreg lookup:409 value:0
Archreg:154 Phyreg lookup:410 value:0
Archreg:155 Phyreg lookup:411 value:0
Archreg:156 Phyreg lookup:412 value:0
Archreg:157 Phyreg lookup:413 value:0
Archreg:158 Phyreg lookup:414 value:0
Archreg:159 Phyreg lookup:415 value:0
*****CC REG mappings total TheISA::NumCCRegs:6
Archreg:0 Phyreg lookup:1240 value:0
Archreg:1 Phyreg lookup:1241 value:1
Archreg:2 Phyreg lookup:1243 value:0
Archreg:3 Phyreg lookup:515 value:0
Archreg:4 Phyreg lookup:851 value:0
Archreg:5 Phyreg lookup:517 value:0
*****TRANSFORM going to print the reg mappings now!
*****INT REG mappings total TheISA::NumIntRegs:43
Archreg:0 Phyreg lookup:66 value:5180228
Archreg:1 Phyreg lookup:5 value:0
Archreg:2 Phyreg lookup:95 value:167104
Archreg:3 Phyreg lookup:14 value:5191684
Archreg:4 Phyreg lookup:125 value:0
Archreg:5 Phyreg lookup:123 value:4291532
Archreg:6 Phyreg lookup:48 value:5360388
Archreg:7 Phyreg lookup:98 value:4970092
Archreg:8 Phyreg lookup:78 value:0
Archreg:9 Phyreg lookup:116 value:3755008
Archreg:10 Phyreg lookup:53 value:5536516
Archreg:11 Phyreg lookup:7 value:4
Archreg:12 Phyreg lookup:107 value:0
Archreg:13 Phyreg lookup:68 value:3204447080
Archreg:14 Phyreg lookup:0 value:557335
Archreg:15 Phyreg lookup:90 value:0
Archreg:16 Phyreg lookup:16 value:0
Archreg:17 Phyreg lookup:17 value:0
Archreg:18 Phyreg lookup:18 value:0
Archreg:19 Phyreg lookup:19 value:0
Archreg:20 Phyreg lookup:20 value:0
Archreg:21 Phyreg lookup:21 value:0
Archreg:22 Phyreg lookup:22 value:0
Archreg:23 Phyreg lookup:23 value:0
Archreg:24 Phyreg lookup:24 value:0
Archreg:25 Phyreg lookup:25 value:0
Archreg:26 Phyreg lookup:26 value:0
Archreg:27 Phyreg lookup:27 value:0
Archreg:28 Phyreg lookup:28 value:0
Archreg:29 Phyreg lookup:29 value:0
Archreg:30 Phyreg lookup:30 value:0
Archreg:31 Phyreg lookup:31 value:0
Archreg:32 Phyreg lookup:32 value:0
Archreg:33 Phyreg lookup:33 value:0
Archreg:34 Phyreg lookup:34 value:0
Archreg:35 Phyreg lookup:60 value:767099
Archreg:36 Phyreg lookup:105 value:711663
Archreg:37 Phyreg lookup:37 value:0
Archreg:38 Phyreg lookup:38 value:0
Archreg:39 Phyreg lookup:39 value:0
Archreg:40 Phyreg lookup:40 value:0
Archreg:41 Phyreg lookup:41 value:0
Archreg:42 Phyreg lookup:42 value:0
*****FLOAT REG mappings total TheISA::NumFloatRegs:160
Archreg:0 Phyreg lookup:128 value:0
Archreg:1 Phyreg lookup:129 value:0
Archreg:2 Phyreg lookup:130 value:0
Archreg:3 Phyreg lookup:131 value:0
Archreg:4 Phyreg lookup:132 value:0
Archreg:5 Phyreg lookup:133 value:0
Archreg:6 Phyreg lookup:134 value:0
Archreg:7 Phyreg lookup:135 value:0
Archreg:8 Phyreg lookup:136 value:0
Archreg:9 Phyreg lookup:137 value:0
Archreg:10 Phyreg lookup:138 value:0
Archreg:11 Phyreg lookup:139 value:0
Archreg:12 Phyreg lookup:140 value:0
Archreg:13 Phyreg lookup:141 value:0
Archreg:14 Phyreg lookup:142 value:0
Archreg:15 Phyreg lookup:143 value:0
Archreg:16 Phyreg lookup:144 value:0
Archreg:17 Phyreg lookup:145 value:0
Archreg:18 Phyreg lookup:146 value:0
Archreg:19 Phyreg lookup:147 value:0
Archreg:20 Phyreg lookup:148 value:0
Archreg:21 Phyreg lookup:149 value:0
Archreg:22 Phyreg lookup:150 value:0
Archreg:23 Phyreg lookup:151 value:0
Archreg:24 Phyreg lookup:152 value:0
Archreg:25 Phyreg lookup:153 value:0
Archreg:26 Phyreg lookup:154 value:0
Archreg:27 Phyreg lookup:155 value:0
Archreg:28 Phyreg lookup:156 value:0
Archreg:29 Phyreg lookup:157 value:0
Archreg:30 Phyreg lookup:158 value:0
Archreg:31 Phyreg lookup:159 value:0
Archreg:32 Phyreg lookup:160 value:0
Archreg:33 Phyreg lookup:161 value:0
Archreg:34 Phyreg lookup:162 value:0
Archreg:35 Phyreg lookup:163 value:0
Archreg:36 Phyreg lookup:164 value:0
Archreg:37 Phyreg lookup:165 value:0
Archreg:38 Phyreg lookup:166 value:0
Archreg:39 Phyreg lookup:167 value:0
Archreg:40 Phyreg lookup:168 value:0
Archreg:41 Phyreg lookup:169 value:0
Archreg:42 Phyreg lookup:170 value:0
Archreg:43 Phyreg lookup:171 value:0
Archreg:44 Phyreg lookup:172 value:0
Archreg:45 Phyreg lookup:173 value:0
Archreg:46 Phyreg lookup:174 value:0
Archreg:47 Phyreg lookup:175 value:0
Archreg:48 Phyreg lookup:176 value:0
Archreg:49 Phyreg lookup:177 value:0
Archreg:50 Phyreg lookup:178 value:0
Archreg:51 Phyreg lookup:179 value:0
Archreg:52 Phyreg lookup:180 value:0
Archreg:53 Phyreg lookup:181 value:0
Archreg:54 Phyreg lookup:182 value:0
Archreg:55 Phyreg lookup:183 value:0
Archreg:56 Phyreg lookup:184 value:0
Archreg:57 Phyreg lookup:185 value:0
Archreg:58 Phyreg lookup:186 value:0
Archreg:59 Phyreg lookup:187 value:0
Archreg:60 Phyreg lookup:188 value:0
Archreg:61 Phyreg lookup:189 value:0
Archreg:62 Phyreg lookup:190 value:0
Archreg:63 Phyreg lookup:191 value:0
Archreg:64 Phyreg lookup:192 value:0
Archreg:65 Phyreg lookup:193 value:0
Archreg:66 Phyreg lookup:194 value:0
Archreg:67 Phyreg lookup:195 value:0
Archreg:68 Phyreg lookup:196 value:0
Archreg:69 Phyreg lookup:197 value:0
Archreg:70 Phyreg lookup:198 value:0
Archreg:71 Phyreg lookup:199 value:0
Archreg:72 Phyreg lookup:200 value:0
Archreg:73 Phyreg lookup:201 value:0
Archreg:74 Phyreg lookup:202 value:0
Archreg:75 Phyreg lookup:203 value:0
Archreg:76 Phyreg lookup:204 value:0
Archreg:77 Phyreg lookup:205 value:0
Archreg:78 Phyreg lookup:206 value:0
Archreg:79 Phyreg lookup:207 value:0
Archreg:80 Phyreg lookup:208 value:0
Archreg:81 Phyreg lookup:209 value:0
Archreg:82 Phyreg lookup:210 value:0
Archreg:83 Phyreg lookup:211 value:0
Archreg:84 Phyreg lookup:212 value:0
Archreg:85 Phyreg lookup:213 value:0
Archreg:86 Phyreg lookup:214 value:0
Archreg:87 Phyreg lookup:215 value:0
Archreg:88 Phyreg lookup:216 value:0
Archreg:89 Phyreg lookup:217 value:0
Archreg:90 Phyreg lookup:218 value:0
Archreg:91 Phyreg lookup:219 value:0
Archreg:92 Phyreg lookup:220 value:0
Archreg:93 Phyreg lookup:221 value:0
Archreg:94 Phyreg lookup:222 value:0
Archreg:95 Phyreg lookup:223 value:0
Archreg:96 Phyreg lookup:224 value:0
Archreg:97 Phyreg lookup:225 value:0
Archreg:98 Phyreg lookup:226 value:0
Archreg:99 Phyreg lookup:227 value:0
Archreg:100 Phyreg lookup:228 value:0
Archreg:101 Phyreg lookup:229 value:0
Archreg:102 Phyreg lookup:230 value:0
Archreg:103 Phyreg lookup:231 value:0
Archreg:104 Phyreg lookup:232 value:0
Archreg:105 Phyreg lookup:233 value:0
Archreg:106 Phyreg lookup:234 value:0
Archreg:107 Phyreg lookup:235 value:0
Archreg:108 Phyreg lookup:236 value:0
Archreg:109 Phyreg lookup:237 value:0
Archreg:110 Phyreg lookup:238 value:0
Archreg:111 Phyreg lookup:239 value:0
Archreg:112 Phyreg lookup:240 value:0
Archreg:113 Phyreg lookup:241 value:0
Archreg:114 Phyreg lookup:242 value:0
Archreg:115 Phyreg lookup:243 value:0
Archreg:116 Phyreg lookup:244 value:0
Archreg:117 Phyreg lookup:245 value:0
Archreg:118 Phyreg lookup:246 value:0
Archreg:119 Phyreg lookup:247 value:0
Archreg:120 Phyreg lookup:248 value:0
Archreg:121 Phyreg lookup:249 value:0
Archreg:122 Phyreg lookup:250 value:0
Archreg:123 Phyreg lookup:251 value:0
Archreg:124 Phyreg lookup:252 value:0
Archreg:125 Phyreg lookup:253 value:0
Archreg:126 Phyreg lookup:254 value:0
Archreg:127 Phyreg lookup:255 value:0
Archreg:128 Phyreg lookup:256 value:0
Archreg:129 Phyreg lookup:257 value:0
Archreg:130 Phyreg lookup:258 value:0
Archreg:131 Phyreg lookup:259 value:0
Archreg:132 Phyreg lookup:260 value:0
Archreg:133 Phyreg lookup:261 value:0
Archreg:134 Phyreg lookup:262 value:0
Archreg:135 Phyreg lookup:263 value:0
Archreg:136 Phyreg lookup:264 value:0
Archreg:137 Phyreg lookup:265 value:0
Archreg:138 Phyreg lookup:266 value:0
Archreg:139 Phyreg lookup:267 value:0
Archreg:140 Phyreg lookup:268 value:0
Archreg:141 Phyreg lookup:269 value:0
Archreg:142 Phyreg lookup:270 value:0
Archreg:143 Phyreg lookup:271 value:0
Archreg:144 Phyreg lookup:272 value:0
Archreg:145 Phyreg lookup:273 value:0
Archreg:146 Phyreg lookup:274 value:0
Archreg:147 Phyreg lookup:275 value:0
Archreg:148 Phyreg lookup:276 value:0
Archreg:149 Phyreg lookup:277 value:0
Archreg:150 Phyreg lookup:278 value:0
Archreg:151 Phyreg lookup:279 value:0
Archreg:152 Phyreg lookup:280 value:0
Archreg:153 Phyreg lookup:281 value:0
Archreg:154 Phyreg lookup:282 value:0
Archreg:155 Phyreg lookup:283 value:0
Archreg:156 Phyreg lookup:284 value:0
Archreg:157 Phyreg lookup:285 value:0
Archreg:158 Phyreg lookup:286 value:0
Archreg:159 Phyreg lookup:287 value:0
*****CC REG mappings total TheISA::NumCCRegs:6
Archreg:0 Phyreg lookup:1112 value:0
Archreg:1 Phyreg lookup:1113 value:1
Archreg:2 Phyreg lookup:1115 value:0
Archreg:3 Phyreg lookup:387 value:0
Archreg:4 Phyreg lookup:723 value:0
Archreg:5 Phyreg lookup:389 value:0
*****TRANSFORM DONE calling functions to scale Phy Regfile
REGFILE PARAMS: baseFloatRegIndex:128 sizeOfintRegFile:256 baseCCRegIndex:384 sizeOffloatRegFile:256 totalNumRegs:1664 old_baseFloatRegIndex:256 old_baseCCRegIndex:512 old_totalNumRegs:1792
FREELIST ENTRIES: numFreeIntRegs:85 numFreeFloatRegs:96 numFreeCCRegs:1146
*****TRANSFORM calling scale_rob
*****TRANSFORM make_rob_half original size = 192new rob size = 96
*****TRANSFORM update_rob_threads  tid 0 old maxEntries:192 new maxEntries:96
*****TRANSFORM DONE calling scale_rob
*****TRANSFORM calling functions to scale LSQ
*****TRANSFORM scale_entire_lsq : Old LQEntries:32 Old SQEntries:32 New LQEntries:16 New SQEntries:16
*****TRANSFORM update_lsq_units :  TID: 0 scale_lsq_unit 
*****TRANSFROM scale_lsq_unit : Old LQEntries:33 Old SQEntries:33
 New LQEntries:17 New SQEntries:17
*****TRANSFORM LSQ<Impl>::resetEntries tid:0 Calling resizeEntries
****TRANSFORM LSQUnit<Impl>::resizeLQ : Old LQEntries:17 New LQEntries:17
****TRANSFORM LSQUnit<Impl>::resizeSQ : Old SQEntries:17 New SQEntries:17
*****TRANSFORM DONE calling functions to scale LSQ
****TRANSFORM DRAINRESUME going to call drainResume
15344000: system.cpu: Resuming...
15344000: system.cpu: Activating thread: 0
****TRANSFORM DONE Core should resume now!
*****TRANSFORM going to call drain()
152700500: system.cpu: Draining...
152700500: system.cpu: Main CPU structures not drained.
152700500: system.cpu: Fetch not drained.
152700500: system.cpu: Decode not drained.
152700500: system.cpu: Rename not drained.
152700500: system.cpu.iew.lsq: Not drained, SQ not empty.
152700500: system.cpu: IEW not drained.
152700500: system.cpu: Commit not drained.
152700500: system.cpu: CPU not drained
*****TRANSFORM DONE calling with drain()
152700500: system.cpu: Main CPU structures not drained.
152700500: system.cpu: Fetch not drained.
152700500: system.cpu: Decode not drained.
152700500: system.cpu: Rename not drained.
152700500: system.cpu.iew.lsq: Not drained, SQ not empty.
152700500: system.cpu: IEW not drained.
152700500: system.cpu: Commit not drained.
152701000: system.cpu: Main CPU structures not drained.
152701000: system.cpu: Fetch not drained.
152701000: system.cpu: Decode not drained.
152701000: system.cpu: Rename not drained.
152701000: system.cpu.iew.lsq: Not drained, SQ not empty.
152701000: system.cpu: IEW not drained.
152701000: system.cpu: Commit not drained.
152701500: system.cpu: Main CPU structures not drained.
152701500: system.cpu: Fetch not drained.
152701500: system.cpu: Decode not drained.
152701500: system.cpu: Rename not drained.
152701500: system.cpu.iew.lsq: Not drained, SQ not empty.
152701500: system.cpu: IEW not drained.
152701500: system.cpu: Commit not drained.
152702000: system.cpu: Main CPU structures not drained.
152702000: system.cpu: Fetch not drained.
152702000: system.cpu: Decode not drained.
152702000: system.cpu: Rename not drained.
152702000: system.cpu.iew.lsq: Not drained, SQ not empty.
152702000: system.cpu: IEW not drained.
152702000: system.cpu: Commit not drained.
152702500: system.cpu: Main CPU structures not drained.
152702500: system.cpu: Fetch not drained.
152702500: system.cpu: Decode not drained.
152702500: system.cpu: Rename not drained.
152702500: system.cpu.iew.lsq: Not drained, SQ not empty.
152702500: system.cpu: IEW not drained.
152702500: system.cpu: Commit not drained.
152703000: system.cpu: Main CPU structures not drained.
152703000: system.cpu: Fetch not drained.
152703000: system.cpu: Decode not drained.
152703000: system.cpu: Rename not drained.
152703000: system.cpu.iew.lsq: Not drained, SQ not empty.
152703000: system.cpu: IEW not drained.
152703000: system.cpu: Commit not drained.
152703500: system.cpu: Main CPU structures not drained.
152703500: system.cpu: Fetch not drained.
152703500: system.cpu: Decode not drained.
152703500: system.cpu: Rename not drained.
152703500: system.cpu.iew.lsq: Not drained, SQ not empty.
152703500: system.cpu: IEW not drained.
152703500: system.cpu: Commit not drained.
152704000: system.cpu: Main CPU structures not drained.
152704000: system.cpu: Fetch not drained.
152704000: system.cpu: Decode not drained.
152704000: system.cpu: Rename not drained.
152704000: system.cpu.iew.lsq: Not drained, SQ not empty.
152704000: system.cpu: IEW not drained.
152704000: system.cpu: Commit not drained.
152704500: system.cpu: Main CPU structures not drained.
152704500: system.cpu: Fetch not drained.
152704500: system.cpu: Decode not drained.
152704500: system.cpu: Rename not drained.
152704500: system.cpu.iew.lsq: Not drained, SQ not empty.
152704500: system.cpu: IEW not drained.
152704500: system.cpu: Commit not drained.
152705000: system.cpu: Main CPU structures not drained.
152705000: system.cpu: Fetch not drained.
152705000: system.cpu: Decode not drained.
152705000: system.cpu: Rename not drained.
152705000: system.cpu.iew.lsq: Not drained, SQ not empty.
152705000: system.cpu: IEW not drained.
152705000: system.cpu: Commit not drained.
152705500: system.cpu: Main CPU structures not drained.
152705500: system.cpu: Fetch not drained.
152705500: system.cpu: Decode not drained.
152705500: system.cpu: Rename not drained.
152705500: system.cpu.iew.lsq: Not drained, SQ not empty.
152705500: system.cpu: IEW not drained.
152705500: system.cpu: Commit not drained.
152706000: system.cpu: Main CPU structures not drained.
152706000: system.cpu: Fetch not drained.
152706000: system.cpu: Decode not drained.
152706000: system.cpu: Rename not drained.
152706000: system.cpu.iew.lsq: Not drained, SQ not empty.
152706000: system.cpu: IEW not drained.
152706000: system.cpu: Commit not drained.
152706500: system.cpu: Main CPU structures not drained.
152706500: system.cpu: Fetch not drained.
152706500: system.cpu: Decode not drained.
152706500: system.cpu: Rename not drained.
152706500: system.cpu.iew.lsq: Not drained, SQ not empty.
152706500: system.cpu: IEW not drained.
152706500: system.cpu: Commit not drained.
152707000: system.cpu: Main CPU structures not drained.
152707000: system.cpu: Fetch not drained.
152707000: system.cpu: Decode not drained.
152707000: system.cpu: Rename not drained.
152707000: system.cpu.iew.lsq: Not drained, SQ not empty.
152707000: system.cpu: IEW not drained.
152707000: system.cpu: Commit not drained.
152707500: system.cpu: Main CPU structures not drained.
152707500: system.cpu: Fetch not drained.
152707500: system.cpu: Decode not drained.
152707500: system.cpu: Rename not drained.
152707500: system.cpu.iew.lsq: Not drained, SQ not empty.
152707500: system.cpu: IEW not drained.
152707500: system.cpu: Commit not drained.
152708000: system.cpu: Main CPU structures not drained.
152708000: system.cpu: Fetch not drained.
152708000: system.cpu: Decode not drained.
152708000: system.cpu: Rename not drained.
152708000: system.cpu.iew.lsq: Not drained, SQ not empty.
152708000: system.cpu: IEW not drained.
152708000: system.cpu: Commit not drained.
152708500: system.cpu: Main CPU structures not drained.
152708500: system.cpu: Fetch not drained.
152708500: system.cpu: Decode not drained.
152708500: system.cpu: Rename not drained.
152708500: system.cpu.iew.lsq: Not drained, SQ not empty.
152708500: system.cpu: IEW not drained.
152708500: system.cpu: Commit not drained.
152709000: system.cpu: Main CPU structures not drained.
152709000: system.cpu: Fetch not drained.
152709000: system.cpu: Decode not drained.
152709000: system.cpu: Rename not drained.
152709000: system.cpu.iew.lsq: Not drained, SQ not empty.
152709000: system.cpu: IEW not drained.
152709000: system.cpu: Commit not drained.
152709500: system.cpu: Main CPU structures not drained.
152709500: system.cpu: Fetch not drained.
152709500: system.cpu: Decode not drained.
152709500: system.cpu: Rename not drained.
152709500: system.cpu.iew.lsq: Not drained, SQ not empty.
152709500: system.cpu: IEW not drained.
152709500: system.cpu: Commit not drained.
152710000: system.cpu: Main CPU structures not drained.
152710000: system.cpu: Fetch not drained.
152710000: system.cpu: Decode not drained.
152710000: system.cpu: Rename not drained.
152710000: system.cpu.iew.lsq: Not drained, SQ not empty.
152710000: system.cpu: IEW not drained.
152710000: system.cpu: Commit not drained.
152710500: system.cpu: Main CPU structures not drained.
152710500: system.cpu: Fetch not drained.
152710500: system.cpu: Decode not drained.
152710500: system.cpu: Rename not drained.
152710500: system.cpu.iew.lsq: Not drained, SQ not empty.
152710500: system.cpu: IEW not drained.
152710500: system.cpu: Commit not drained.
152711000: system.cpu: Main CPU structures not drained.
152711000: system.cpu: Fetch not drained.
152711000: system.cpu: Decode not drained.
152711000: system.cpu: Rename not drained.
152711000: system.cpu.iew.lsq: Not drained, SQ not empty.
152711000: system.cpu: IEW not drained.
152711000: system.cpu: Commit not drained.
152711500: system.cpu: Main CPU structures not drained.
152711500: system.cpu: Fetch not drained.
[...]
1527025000: system.cpu: IEW not drained.
1527025500: system.cpu.iew.lsq: Not drained, SQ not empty.
1527025500: system.cpu: IEW not drained.
1527026000: system.cpu.iew.lsq: Not drained, SQ not empty.
1527026000: system.cpu: IEW not drained.
1527026500: system.cpu.iew.lsq: Not drained, SQ not empty.
1527026500: system.cpu: IEW not drained.
1527027000: system.cpu.iew.lsq: Not drained, SQ not empty.
1527027000: system.cpu: IEW not drained.
1527027500: system.cpu.iew.lsq: Not drained, SQ not empty.
1527027500: system.cpu: IEW not drained.
1527028000: system.cpu.iew.lsq: Not drained, SQ not empty.
1527028000: system.cpu: IEW not drained.
1527028500: system.cpu.iew.lsq: Not drained, SQ not empty.
1527028500: system.cpu: IEW not drained.
*****TRANSFORM_UP calling scale_up_btb original size btb:2048
*****TRANSFORM_UP calling scale_up_btb new size btb:4096
*****TRANSFORM_UP calling scale_up_TLB original size dtb:32 itb:32
*****TRANSFORM_UP DONE calling scale_up_TLB new size dtb:64 itb:64
*****TRANSFORM_UP calling scale_up_IQ oldIQentries:32 oldFreeEntries:32
*****TRANSFORM_UP DONE calling scale_up_IQ newIQentries:64 newFreeEntries:64
REGFILE PARAMS: baseFloatRegIndex:128 sizeOfintRegFile:256 baseCCRegIndex:384 sizeOffloatRegFile:256 totalNumRegs:1664 old_baseFloatRegIndex:256 old_baseCCRegIndex:512 old_totalNumRegs:1792
FREELIST ENTRIES: numFreeIntRegs:85 numFreeFloatRegs:96 numFreeCCRegs:1146
*****TRANSFORM going to print the reg mappings now!
*****INT REG mappings total TheISA::NumIntRegs:43
Archreg:0 Phyreg lookup:15 value:5552232
Archreg:1 Phyreg lookup:50 value:600000
Archreg:2 Phyreg lookup:11 value:1073741832
Archreg:3 Phyreg lookup:3 value:460270
Archreg:4 Phyreg lookup:51 value:0
Archreg:5 Phyreg lookup:77 value:1073741832
Archreg:6 Phyreg lookup:94 value:5385128
Archreg:7 Phyreg lookup:13 value:134
Archreg:8 Phyreg lookup:117 value:4
Archreg:9 Phyreg lookup:71 value:4294967278
Archreg:10 Phyreg lookup:79 value:5536516
Archreg:11 Phyreg lookup:103 value:1
Archreg:12 Phyreg lookup:56 value:5541056
Archreg:13 Phyreg lookup:125 value:3204447120
Archreg:14 Phyreg lookup:70 value:472763
Archreg:15 Phyreg lookup:63 value:1
Archreg:16 Phyreg lookup:16 value:0
Archreg:17 Phyreg lookup:17 value:0
Archreg:18 Phyreg lookup:18 value:0
Archreg:19 Phyreg lookup:19 value:0
Archreg:20 Phyreg lookup:20 value:0
Archreg:21 Phyreg lookup:21 value:0
Archreg:22 Phyreg lookup:22 value:0
Archreg:23 Phyreg lookup:23 value:0
Archreg:24 Phyreg lookup:24 value:0
Archreg:25 Phyreg lookup:25 value:0
Archreg:26 Phyreg lookup:26 value:0
Archreg:27 Phyreg lookup:27 value:0
Archreg:28 Phyreg lookup:28 value:0
Archreg:29 Phyreg lookup:29 value:0
Archreg:30 Phyreg lookup:30 value:0
Archreg:31 Phyreg lookup:31 value:0
Archreg:32 Phyreg lookup:32 value:0
Archreg:33 Phyreg lookup:33 value:0
Archreg:34 Phyreg lookup:34 value:0
Archreg:35 Phyreg lookup:53 value:5536880
Archreg:36 Phyreg lookup:75 value:472743
Archreg:37 Phyreg lookup:37 value:0
Archreg:38 Phyreg lookup:38 value:0
Archreg:39 Phyreg lookup:39 value:0
Archreg:40 Phyreg lookup:40 value:0
Archreg:41 Phyreg lookup:41 value:0
Archreg:42 Phyreg lookup:42 value:0
*****FLOAT REG mappings total TheISA::NumFloatRegs:160
Archreg:0 Phyreg lookup:128 value:0
Archreg:1 Phyreg lookup:129 value:0
Archreg:2 Phyreg lookup:130 value:0
Archreg:3 Phyreg lookup:131 value:0
Archreg:4 Phyreg lookup:132 value:0
Archreg:5 Phyreg lookup:133 value:0
Archreg:6 Phyreg lookup:134 value:0
Archreg:7 Phyreg lookup:135 value:0
Archreg:8 Phyreg lookup:136 value:0
Archreg:9 Phyreg lookup:137 value:0
Archreg:10 Phyreg lookup:138 value:0
Archreg:11 Phyreg lookup:139 value:0
Archreg:12 Phyreg lookup:140 value:0
Archreg:13 Phyreg lookup:141 value:0
Archreg:14 Phyreg lookup:142 value:0
Archreg:15 Phyreg lookup:143 value:0
Archreg:16 Phyreg lookup:144 value:0
Archreg:17 Phyreg lookup:145 value:0
Archreg:18 Phyreg lookup:146 value:0
Archreg:19 Phyreg lookup:147 value:0
Archreg:20 Phyreg lookup:148 value:0
Archreg:21 Phyreg lookup:149 value:0
Archreg:22 Phyreg lookup:150 value:0
Archreg:23 Phyreg lookup:151 value:0
Archreg:24 Phyreg lookup:152 value:0
Archreg:25 Phyreg lookup:153 value:0
Archreg:26 Phyreg lookup:154 value:0
Archreg:27 Phyreg lookup:155 value:0
Archreg:28 Phyreg lookup:156 value:0
Archreg:29 Phyreg lookup:157 value:0
Archreg:30 Phyreg lookup:158 value:0
Archreg:31 Phyreg lookup:159 value:0
Archreg:32 Phyreg lookup:160 value:0
Archreg:33 Phyreg lookup:161 value:0
Archreg:34 Phyreg lookup:162 value:0
Archreg:35 Phyreg lookup:163 value:0
Archreg:36 Phyreg lookup:164 value:0
Archreg:37 Phyreg lookup:165 value:0
Archreg:38 Phyreg lookup:166 value:0
Archreg:39 Phyreg lookup:167 value:0
Archreg:40 Phyreg lookup:168 value:0
Archreg:41 Phyreg lookup:169 value:0
Archreg:42 Phyreg lookup:170 value:0
Archreg:43 Phyreg lookup:171 value:0
Archreg:44 Phyreg lookup:172 value:0
Archreg:45 Phyreg lookup:173 value:0
Archreg:46 Phyreg lookup:174 value:0
Archreg:47 Phyreg lookup:175 value:0
Archreg:48 Phyreg lookup:176 value:0
Archreg:49 Phyreg lookup:177 value:0
Archreg:50 Phyreg lookup:178 value:0
Archreg:51 Phyreg lookup:179 value:0
Archreg:52 Phyreg lookup:180 value:0
Archreg:53 Phyreg lookup:181 value:0
Archreg:54 Phyreg lookup:182 value:0
Archreg:55 Phyreg lookup:183 value:0
Archreg:56 Phyreg lookup:184 value:0
Archreg:57 Phyreg lookup:185 value:0
Archreg:58 Phyreg lookup:186 value:0
Archreg:59 Phyreg lookup:187 value:0
Archreg:60 Phyreg lookup:188 value:0
Archreg:61 Phyreg lookup:189 value:0
Archreg:62 Phyreg lookup:190 value:0
Archreg:63 Phyreg lookup:191 value:0
Archreg:64 Phyreg lookup:192 value:0
Archreg:65 Phyreg lookup:193 value:0
Archreg:66 Phyreg lookup:194 value:0
Archreg:67 Phyreg lookup:195 value:0
Archreg:68 Phyreg lookup:196 value:0
Archreg:69 Phyreg lookup:197 value:0
Archreg:70 Phyreg lookup:198 value:0
Archreg:71 Phyreg lookup:199 value:0
Archreg:72 Phyreg lookup:200 value:0
Archreg:73 Phyreg lookup:201 value:0
Archreg:74 Phyreg lookup:202 value:0
Archreg:75 Phyreg lookup:203 value:0
Archreg:76 Phyreg lookup:204 value:0
Archreg:77 Phyreg lookup:205 value:0
Archreg:78 Phyreg lookup:206 value:0
Archreg:79 Phyreg lookup:207 value:0
Archreg:80 Phyreg lookup:208 value:0
Archreg:81 Phyreg lookup:209 value:0
Archreg:82 Phyreg lookup:210 value:0
Archreg:83 Phyreg lookup:211 value:0
Archreg:84 Phyreg lookup:212 value:0
Archreg:85 Phyreg lookup:213 value:0
Archreg:86 Phyreg lookup:214 value:0
Archreg:87 Phyreg lookup:215 value:0
Archreg:88 Phyreg lookup:216 value:0
Archreg:89 Phyreg lookup:217 value:0
Archreg:90 Phyreg lookup:218 value:0
Archreg:91 Phyreg lookup:219 value:0
Archreg:92 Phyreg lookup:220 value:0
Archreg:93 Phyreg lookup:221 value:0
Archreg:94 Phyreg lookup:222 value:0
Archreg:95 Phyreg lookup:223 value:0
Archreg:96 Phyreg lookup:224 value:0
Archreg:97 Phyreg lookup:225 value:0
Archreg:98 Phyreg lookup:226 value:0
Archreg:99 Phyreg lookup:227 value:0
Archreg:100 Phyreg lookup:228 value:0
Archreg:101 Phyreg lookup:229 value:0
Archreg:102 Phyreg lookup:230 value:0
Archreg:103 Phyreg lookup:231 value:0
Archreg:104 Phyreg lookup:232 value:0
Archreg:105 Phyreg lookup:233 value:0
Archreg:106 Phyreg lookup:234 value:0
Archreg:107 Phyreg lookup:235 value:0
Archreg:108 Phyreg lookup:236 value:0
Archreg:109 Phyreg lookup:237 value:0
Archreg:110 Phyreg lookup:238 value:0
Archreg:111 Phyreg lookup:239 value:0
Archreg:112 Phyreg lookup:240 value:0
Archreg:113 Phyreg lookup:241 value:0
Archreg:114 Phyreg lookup:242 value:0
Archreg:115 Phyreg lookup:243 value:0
Archreg:116 Phyreg lookup:244 value:0
Archreg:117 Phyreg lookup:245 value:0
Archreg:118 Phyreg lookup:246 value:0
Archreg:119 Phyreg lookup:247 value:0
Archreg:120 Phyreg lookup:248 value:0
Archreg:121 Phyreg lookup:249 value:0
Archreg:122 Phyreg lookup:250 value:0
Archreg:123 Phyreg lookup:251 value:0
Archreg:124 Phyreg lookup:252 value:0
Archreg:125 Phyreg lookup:253 value:0
Archreg:126 Phyreg lookup:254 value:0
Archreg:127 Phyreg lookup:255 value:0
Archreg:128 Phyreg lookup:256 value:0
Archreg:129 Phyreg lookup:257 value:0
Archreg:130 Phyreg lookup:258 value:0
Archreg:131 Phyreg lookup:259 value:0
Archreg:132 Phyreg lookup:260 value:0
Archreg:133 Phyreg lookup:261 value:0
Archreg:134 Phyreg lookup:262 value:0
Archreg:135 Phyreg lookup:263 value:0
Archreg:136 Phyreg lookup:264 value:0
Archreg:137 Phyreg lookup:265 value:0
Archreg:138 Phyreg lookup:266 value:0
Archreg:139 Phyreg lookup:267 value:0
Archreg:140 Phyreg lookup:268 value:0
Archreg:141 Phyreg lookup:269 value:0
Archreg:142 Phyreg lookup:270 value:0
Archreg:143 Phyreg lookup:271 value:0
Archreg:144 Phyreg lookup:272 value:0
Archreg:145 Phyreg lookup:273 value:0
Archreg:146 Phyreg lookup:274 value:0
Archreg:147 Phyreg lookup:275 value:0
Archreg:148 Phyreg lookup:276 value:0
Archreg:149 Phyreg lookup:277 value:0
Archreg:150 Phyreg lookup:278 value:0
Archreg:151 Phyreg lookup:279 value:0
Archreg:152 Phyreg lookup:280 value:0
Archreg:153 Phyreg lookup:281 value:0
Archreg:154 Phyreg lookup:282 value:0
Archreg:155 Phyreg lookup:283 value:0
Archreg:156 Phyreg lookup:284 value:0
Archreg:157 Phyreg lookup:285 value:0
Archreg:158 Phyreg lookup:286 value:0
Archreg:159 Phyreg lookup:287 value:0
*****CC REG mappings total TheISA::NumCCRegs:6
Archreg:0 Phyreg lookup:615 value:2
Archreg:1 Phyreg lookup:628 value:0
Archreg:2 Phyreg lookup:653 value:0
Archreg:3 Phyreg lookup:387 value:0
Archreg:4 Phyreg lookup:723 value:0
Archreg:5 Phyreg lookup:389 value:0
*****TRANSFORM calling functions to scale Phy Regfile
restrict_up_intreg_mapping BEFORE numFreeEntries:96
restrict_intreg_mapping AFTER numFreeEntries:96
restrict_up_ccreg_mapping BEFORE numFreeEntries:96
restrict_up_ccreg_mapping AFTER numFreeEntries:96
restrict_up_floatreg_mapping BEFORE numFreeEntries:96
restrict_up_floatreg_mapping AFTER numFreeEntries:96
*****TRANSFORM going to print the reg mappings now!
*****INT REG mappings total TheISA::NumIntRegs:43
Archreg:0 Phyreg lookup:15 value:5552232
Archreg:1 Phyreg lookup:50 value:600000
Archreg:2 Phyreg lookup:11 value:1073741832
Archreg:3 Phyreg lookup:3 value:460270
Archreg:4 Phyreg lookup:51 value:0
Archreg:5 Phyreg lookup:77 value:1073741832
Archreg:6 Phyreg lookup:94 value:5385128
Archreg:7 Phyreg lookup:13 value:134
Archreg:8 Phyreg lookup:117 value:4
Archreg:9 Phyreg lookup:71 value:4294967278
Archreg:10 Phyreg lookup:79 value:5536516
Archreg:11 Phyreg lookup:103 value:1
Archreg:12 Phyreg lookup:56 value:5541056
Archreg:13 Phyreg lookup:125 value:3204447120
Archreg:14 Phyreg lookup:70 value:472763
Archreg:15 Phyreg lookup:63 value:1
Archreg:16 Phyreg lookup:16 value:0
Archreg:17 Phyreg lookup:17 value:0
Archreg:18 Phyreg lookup:18 value:0
Archreg:19 Phyreg lookup:19 value:0
Archreg:20 Phyreg lookup:20 value:0
Archreg:21 Phyreg lookup:21 value:0
Archreg:22 Phyreg lookup:22 value:0
Archreg:23 Phyreg lookup:23 value:0
Archreg:24 Phyreg lookup:24 value:0
Archreg:25 Phyreg lookup:25 value:0
Archreg:26 Phyreg lookup:26 value:0
Archreg:27 Phyreg lookup:27 value:0
Archreg:28 Phyreg lookup:28 value:0
Archreg:29 Phyreg lookup:29 value:0
Archreg:30 Phyreg lookup:30 value:0
Archreg:31 Phyreg lookup:31 value:0
Archreg:32 Phyreg lookup:32 value:0
Archreg:33 Phyreg lookup:33 value:0
Archreg:34 Phyreg lookup:34 value:0
Archreg:35 Phyreg lookup:53 value:5536880
Archreg:36 Phyreg lookup:75 value:472743
Archreg:37 Phyreg lookup:37 value:0
Archreg:38 Phyreg lookup:38 value:0
Archreg:39 Phyreg lookup:39 value:0
Archreg:40 Phyreg lookup:40 value:0
Archreg:41 Phyreg lookup:41 value:0
Archreg:42 Phyreg lookup:42 value:0
*****FLOAT REG mappings total TheISA::NumFloatRegs:160
Archreg:0 Phyreg lookup:256 value:0
Archreg:1 Phyreg lookup:257 value:0
Archreg:2 Phyreg lookup:258 value:0
Archreg:3 Phyreg lookup:259 value:0
Archreg:4 Phyreg lookup:260 value:0
Archreg:5 Phyreg lookup:261 value:0
Archreg:6 Phyreg lookup:262 value:0
Archreg:7 Phyreg lookup:263 value:0
Archreg:8 Phyreg lookup:264 value:0
Archreg:9 Phyreg lookup:265 value:0
Archreg:10 Phyreg lookup:266 value:0
Archreg:11 Phyreg lookup:267 value:0
Archreg:12 Phyreg lookup:268 value:0
Archreg:13 Phyreg lookup:269 value:0
Archreg:14 Phyreg lookup:270 value:0
Archreg:15 Phyreg lookup:271 value:0
Archreg:16 Phyreg lookup:272 value:0
Archreg:17 Phyreg lookup:273 value:0
Archreg:18 Phyreg lookup:274 value:0
Archreg:19 Phyreg lookup:275 value:0
Archreg:20 Phyreg lookup:276 value:0
Archreg:21 Phyreg lookup:277 value:0
Archreg:22 Phyreg lookup:278 value:0
Archreg:23 Phyreg lookup:279 value:0
Archreg:24 Phyreg lookup:280 value:0
Archreg:25 Phyreg lookup:281 value:0
Archreg:26 Phyreg lookup:282 value:0
Archreg:27 Phyreg lookup:283 value:0
Archreg:28 Phyreg lookup:284 value:0
Archreg:29 Phyreg lookup:285 value:0
Archreg:30 Phyreg lookup:286 value:0
Archreg:31 Phyreg lookup:287 value:0
Archreg:32 Phyreg lookup:288 value:0
Archreg:33 Phyreg lookup:289 value:0
Archreg:34 Phyreg lookup:290 value:0
Archreg:35 Phyreg lookup:291 value:0
Archreg:36 Phyreg lookup:292 value:0
Archreg:37 Phyreg lookup:293 value:0
Archreg:38 Phyreg lookup:294 value:0
Archreg:39 Phyreg lookup:295 value:0
Archreg:40 Phyreg lookup:296 value:0
Archreg:41 Phyreg lookup:297 value:0
Archreg:42 Phyreg lookup:298 value:0
Archreg:43 Phyreg lookup:299 value:0
Archreg:44 Phyreg lookup:300 value:0
Archreg:45 Phyreg lookup:301 value:0
Archreg:46 Phyreg lookup:302 value:0
Archreg:47 Phyreg lookup:303 value:0
Archreg:48 Phyreg lookup:304 value:0
Archreg:49 Phyreg lookup:305 value:0
Archreg:50 Phyreg lookup:306 value:0
Archreg:51 Phyreg lookup:307 value:0
Archreg:52 Phyreg lookup:308 value:0
Archreg:53 Phyreg lookup:309 value:0
Archreg:54 Phyreg lookup:310 value:0
Archreg:55 Phyreg lookup:311 value:0
Archreg:56 Phyreg lookup:312 value:0
Archreg:57 Phyreg lookup:313 value:0
Archreg:58 Phyreg lookup:314 value:0
Archreg:59 Phyreg lookup:315 value:0
Archreg:60 Phyreg lookup:316 value:0
Archreg:61 Phyreg lookup:317 value:0
Archreg:62 Phyreg lookup:318 value:0
Archreg:63 Phyreg lookup:319 value:0
Archreg:64 Phyreg lookup:320 value:0
Archreg:65 Phyreg lookup:321 value:0
Archreg:66 Phyreg lookup:322 value:0
Archreg:67 Phyreg lookup:323 value:0
Archreg:68 Phyreg lookup:324 value:0
Archreg:69 Phyreg lookup:325 value:0
Archreg:70 Phyreg lookup:326 value:0
Archreg:71 Phyreg lookup:327 value:0
Archreg:72 Phyreg lookup:328 value:0
Archreg:73 Phyreg lookup:329 value:0
Archreg:74 Phyreg lookup:330 value:0
Archreg:75 Phyreg lookup:331 value:0
Archreg:76 Phyreg lookup:332 value:0
Archreg:77 Phyreg lookup:333 value:0
Archreg:78 Phyreg lookup:334 value:0
Archreg:79 Phyreg lookup:335 value:0
Archreg:80 Phyreg lookup:336 value:0
Archreg:81 Phyreg lookup:337 value:0
Archreg:82 Phyreg lookup:338 value:0
Archreg:83 Phyreg lookup:339 value:0
Archreg:84 Phyreg lookup:340 value:0
Archreg:85 Phyreg lookup:341 value:0
Archreg:86 Phyreg lookup:342 value:0
Archreg:87 Phyreg lookup:343 value:0
Archreg:88 Phyreg lookup:344 value:0
Archreg:89 Phyreg lookup:345 value:0
Archreg:90 Phyreg lookup:346 value:0
Archreg:91 Phyreg lookup:347 value:0
Archreg:92 Phyreg lookup:348 value:0
Archreg:93 Phyreg lookup:349 value:0
Archreg:94 Phyreg lookup:350 value:0
Archreg:95 Phyreg lookup:351 value:0
Archreg:96 Phyreg lookup:352 value:0
Archreg:97 Phyreg lookup:353 value:0
Archreg:98 Phyreg lookup:354 value:0
Archreg:99 Phyreg lookup:355 value:0
Archreg:100 Phyreg lookup:356 value:0
Archreg:101 Phyreg lookup:357 value:0
Archreg:102 Phyreg lookup:358 value:0
Archreg:103 Phyreg lookup:359 value:0
Archreg:104 Phyreg lookup:360 value:0
Archreg:105 Phyreg lookup:361 value:0
Archreg:106 Phyreg lookup:362 value:0
Archreg:107 Phyreg lookup:363 value:0
Archreg:108 Phyreg lookup:364 value:0
Archreg:109 Phyreg lookup:365 value:0
Archreg:110 Phyreg lookup:366 value:0
Archreg:111 Phyreg lookup:367 value:0
Archreg:112 Phyreg lookup:368 value:0
Archreg:113 Phyreg lookup:369 value:0
Archreg:114 Phyreg lookup:370 value:0
Archreg:115 Phyreg lookup:371 value:0
Archreg:116 Phyreg lookup:372 value:0
Archreg:117 Phyreg lookup:373 value:0
Archreg:118 Phyreg lookup:374 value:0
Archreg:119 Phyreg lookup:375 value:0
Archreg:120 Phyreg lookup:376 value:0
Archreg:121 Phyreg lookup:377 value:0
Archreg:122 Phyreg lookup:378 value:0
Archreg:123 Phyreg lookup:379 value:0
Archreg:124 Phyreg lookup:380 value:0
Archreg:125 Phyreg lookup:381 value:0
Archreg:126 Phyreg lookup:382 value:0
Archreg:127 Phyreg lookup:383 value:0
Archreg:128 Phyreg lookup:384 value:0
Archreg:129 Phyreg lookup:385 value:0
Archreg:130 Phyreg lookup:386 value:0
Archreg:131 Phyreg lookup:387 value:0
Archreg:132 Phyreg lookup:388 value:0
Archreg:133 Phyreg lookup:389 value:0
Archreg:134 Phyreg lookup:390 value:0
Archreg:135 Phyreg lookup:391 value:0
Archreg:136 Phyreg lookup:392 value:0
Archreg:137 Phyreg lookup:393 value:0
Archreg:138 Phyreg lookup:394 value:0
Archreg:139 Phyreg lookup:395 value:0
Archreg:140 Phyreg lookup:396 value:0
Archreg:141 Phyreg lookup:397 value:0
Archreg:142 Phyreg lookup:398 value:0
Archreg:143 Phyreg lookup:399 value:0
Archreg:144 Phyreg lookup:400 value:0
Archreg:145 Phyreg lookup:401 value:0
Archreg:146 Phyreg lookup:402 value:0
Archreg:147 Phyreg lookup:403 value:0
Archreg:148 Phyreg lookup:404 value:0
Archreg:149 Phyreg lookup:405 value:0
Archreg:150 Phyreg lookup:406 value:0
Archreg:151 Phyreg lookup:407 value:0
Archreg:152 Phyreg lookup:408 value:0
Archreg:153 Phyreg lookup:409 value:0
Archreg:154 Phyreg lookup:410 value:0
Archreg:155 Phyreg lookup:411 value:0
Archreg:156 Phyreg lookup:412 value:0
Archreg:157 Phyreg lookup:413 value:0
Archreg:158 Phyreg lookup:414 value:0
Archreg:159 Phyreg lookup:415 value:0
*****CC REG mappings total TheISA::NumCCRegs:6
Archreg:0 Phyreg lookup:743 value:2
Archreg:1 Phyreg lookup:756 value:0
Archreg:2 Phyreg lookup:781 value:0
Archreg:3 Phyreg lookup:515 value:0
Archreg:4 Phyreg lookup:851 value:0
Archreg:5 Phyreg lookup:517 value:0
*****TRANSFORM DONE calling functions to scale Phy Regfile
REGFILE PARAMS: baseFloatRegIndex:256 sizeOfintRegFile:256 baseCCRegIndex:512 sizeOffloatRegFile:256 totalNumRegs:1792 old_baseFloatRegIndex:128 old_baseCCRegIndex:384 old_totalNumRegs:1664
FREELIST ENTRIES: numFreeIntRegs:213 numFreeFloatRegs:96 numFreeCCRegs:1146
*****TRANSFORM_UP calling scale_up_rob
*****TRANSFORM_UP original size = 96new rob size = 192
*****TRANSFORM_UP update_up_rob_threads  tid 0 old maxEntries:96 new maxEntries:192
*****TRANSFORM_UP DONE calling scale_up_rob
*****TRANSFORM_UP calling functions to scale LSQ
*****TRANSFORM scale_entire_lsq : Old LQEntries:16 Old SQEntries:16 New LQEntries:32 New SQEntries:32
*****TRANSFORM update_lsq_units :  TID: 0 scale_lsq_unit 
*****TRANSFROM scale_lsq_unit : Old LQEntries:17 Old SQEntries:17
 New LQEntries:33 New SQEntries:33
*****TRANSFORM LSQ<Impl>::resetEntries tid:0 Calling resizeEntries
****TRANSFORM LSQUnit<Impl>::resizeLQ : Old LQEntries:33 New LQEntries:33
****TRANSFORM LSQUnit<Impl>::resizeSQ : Old SQEntries:33 New SQEntries:33
*****TRANSFORM_UP DONE calling functions to scale LSQ
****TRANSFORM DRAINRESUME going to call drainResume
1527065500: system.cpu: Resuming...
1527065500: system.cpu: Activating thread: 0
****TRANSFORM DONE Core should resume now!
info: Increasing stack size by one page.
info: Increasing stack size by one page.
info: Increasing stack size by one page.
info: Increasing stack size by one page.
info: Increasing stack size by one page.
info: Increasing stack size by one page.
info: Increasing stack size by one page.
info: Increasing stack size by one page.
info: Increasing stack size by one page.
info: Increasing stack size by one page.
info: Increasing stack size by one page.
info: Increasing stack size by one page.
info: Increasing stack size by one page.
info: Increasing stack size by one page.
info: Increasing stack size by one page.
info: Increasing stack size by one page.
info: Increasing stack size by one page.
info: Increasing stack size by one page.
info: Increasing stack size by one page.
info: Increasing stack size by one page.
Exiting @ tick 55555594500 because target called exit()
