gem5 Simulator System.  http://gem5.org
gem5 is copyrighted software; use the --copyright option for details.

gem5 compiled Mar  6 2015 19:25:20
gem5 started Mar  6 2015 19:28:42
gem5 executing on bigbird
command line: ./build/ARM/gem5.opt --outdir=m5out_test --debug-flags=Drain configs/example/se.py --cmd=/research/ljindal/445.gobmk --options=--quiet --mode gtp --input=/research/ljindal/nicklas4.tst --output=445.gobmk.stdout --errout=445.gobmk.stderr --num-cpus=1 --caches -I 10000000000 --cpu-type=detailed
Global frequency set at 1000000000000 ticks per second
BTBPRINT _numEntries:4096 _tagBits:16 _instShiftAmt:2 idxMask:4095 tagMask:65535 tagShiftAmt:14
      0: system.cpu.isa: ISA system set to: 0 0x47af000
*****TRANSFORM totalNumRegs = 256+256+1280
*********TRANSFORM REG_IDX after init is 1792
0: system.remote_gdb.listener: listening for remote gdb #0 on port 7000
**** REAL SIMULATION ****
info: Entering event queue @ 0.  Starting simulation...
LOKESH I am being called from inside Cache!

********** LOKESH I am being called from inside LRU **************

warn: CP14 unimplemented crn[0], opc1[6], crm[3], opc2[4]
warn: CP14 unimplemented crn[8], opc1[2], crm[9], opc2[4]

***** LOKESH print dcache BEFORE invalidate! *****
blk ----
blk VE--
blk ----
blk VE--
blk ----
blk VE--
blk ----
blk VE--
blk ----
blk V---
blk ----
blk ----
blk ----
blk ----
blk ----
blk ----
blk ----
blk ----
blk VE--
blk VEM-
blk VE--
blk VEM-
blk ----
blk VEM-
blk ----
blk VEM-
blk ----
blk VEM-
blk ----
blk VEM-
blk VEM-
blk VE--
blk ----
blk ----
blk ----
blk ----
blk ----
blk ----
blk ----
blk ----
blk ----
blk ----
blk ----
blk ----
blk ----
blk VEM-
blk ----
blk ----
blk ----
blk ----
blk ----
blk ----
blk ----
blk ----
blk ----
blk ----
blk ----
blk ----
blk ----
blk ----
blk ----
blk ----
blk ----
blk ----
blk ----
blk ----
blk ----
blk ----
blk ----
blk ----
blk ----
blk ----
blk ----
blk ----
blk ----
blk ----
blk ----
blk ----
blk ----
blk ----
blk ----
blk ----
blk ----
blk VE--
blk ----
blk ----
blk ----
blk ----
blk ----
blk VEM-
blk ----
blk VEM-
blk ----
blk ----
blk ----
blk ----
blk ----
blk ----
blk ----
blk ----
blk ----
blk VEM-
blk ----
blk ----
blk ----
blk ----
blk ----
blk ----
blk ----
blk ----
blk ----
blk ----
blk ----
blk ----
blk ----
blk ----
blk ----
blk ----
blk ----
blk VEM-
blk ----
blk ----
blk ----
blk ----
blk VEM-
blk VE--
blk ----
blk VE--
blk ----
blk ----
blk ----
blk ----
blk ----
blk ----
blk ----
blk ----
blk ----
blk ----
blk ----
blk ----
blk ----
blk VEM-
blk ----
blk ----
blk ----
blk ----
blk ----
blk VEM-
blk ----
blk VEM-
blk ----
blk VEM-
blk ----
blk VEM-
blk ----
blk VEM-
blk ----
blk VEM-
blk ----
blk VEM-
blk ----
blk VEM-
blk ----
blk ----
blk ----
blk ----
blk ----
blk ----
blk ----
blk ----
blk ----
blk ----
blk ----
blk ----
blk ----
blk ----
blk ----
blk ----
blk ----
blk ----
blk ----
blk ----
blk ----
blk ----
blk ----
blk ----
blk ----
blk ----
blk ----
blk VEM-
blk ----
blk ----
blk ----
blk VEM-
blk ----
blk VEM-
blk ----
blk ----
blk ----
blk ----
blk ----
blk ----
blk ----
blk ----
blk ----
blk ----
blk ----
blk ----
blk ----
blk ----
blk ----
blk VEM-
blk ----
blk VEM-
blk ----
blk ----
blk ----
blk ----
blk ----
blk VEM-
blk ----
blk VEM-
blk ----
blk VEM-
blk ----
blk VEM-
blk ----
blk VEM-
blk ----
blk VEM-
blk VEM-
blk VEM-
blk VEM-
blk VEM-
blk VEM-
blk VEM-
blk VEM-
blk VEM-
blk VEM-
blk VEM-
blk VEM-
blk VEM-
blk VEM-
blk VEM-
blk VEM-
blk VEM-
blk VEM-
blk VEM-
blk VEM-
blk VEM-
blk VEM-
blk VEM-
blk VEM-
blk VEM-
blk VEM-
blk VEM-
blk VEM-
blk VEM-
blk VEM-
blk VEM-
blk VEM-
blk VEM-
blk VEM-
blk VEM-
blk VEM-
blk VEM-
blk VEM-
blk VEM-
blk VEM-
blk VEM-
blk ----
blk VEM-
blk ----
blk VEM-
blk ----
blk VEM-
blk ----
blk VEM-
blk ----
blk VEM-
blk ----
blk VEM-
blk ----
blk VEM-
blk ----
blk VEM-
blk ----
blk VEM-
blk ----
blk VEM-
blk ----
blk VEM-
blk ----
blk VEM-
blk ----
blk VEM-
blk ----
blk VEM-
blk ----
blk VEM-
blk ----
blk VEM-
blk ----
blk VEM-
blk ----
blk VEM-
blk ----
blk VEM-
blk ----
blk VEM-
blk ----
blk VEM-
blk ----
blk VEM-
blk VEM-
blk VEM-
blk ----
blk VEM-
blk ----
blk VEM-
blk ----
blk VEM-
blk ----
blk VEM-
blk ----
blk VEM-
blk VEM-
blk VE--
blk ----
blk VEM-
blk ----
blk VEM-
blk ----
blk VEM-
blk VEM-
blk VEM-
blk ----
blk VEM-
blk ----
blk VEM-
blk ----
blk VEM-
blk ----
blk VEM-
blk VEM-
blk VEM-
blk VEM-
blk VEM-
blk ----
blk VEM-
blk VEM-
blk VEM-
blk VEM-
blk V---
blk VEM-
blk V---
blk V---
blk VEM-
blk V---
blk VEM-
blk V---
blk VEM-
blk VEM-
blk VE--
blk ----
blk VEM-
blk ----
blk VEM-
blk ----
blk VEM-
blk ----
blk VEM-
blk ----
blk VEM-
blk ----
blk VEM-
blk ----
blk VEM-
blk ----
blk VEM-
blk ----
blk VEM-
blk ----
blk VEM-
blk ----
blk VEM-
blk ----
blk VEM-
blk ----
blk VEM-
blk ----
blk VEM-
blk ----
blk VEM-
blk ----
blk VEM-
blk ----
blk VEM-
blk ----
blk VEM-
blk ----
blk VEM-
blk ----
blk VEM-
blk ----
blk VEM-
blk ----
blk VEM-
blk ----
blk VEM-
blk ----
blk VEM-
blk ----
blk VEM-
blk ----
blk VEM-
blk ----
blk VEM-
blk ----
blk VEM-
blk VE--
blk VEM-
blk VEM-
blk VE--
blk ----
blk VEM-
blk ----
blk VEM-
blk ----
blk VEM-
blk VEM-
blk V---
blk VEM-
blk VE--
blk ----
blk VEM-
blk ----
blk VEM-
blk ----
blk VEM-
blk ----
blk VEM-
blk ----
blk VEM-
blk ----
blk VEM-
blk ----
blk VEM-
blk ----
blk VEM-
blk ----
blk VEM-
blk ----
blk VEM-
blk ----
blk VEM-
blk VEM-
blk V---
blk ----
blk VEM-
blk ----
blk VEM-
blk ----
blk VEM-
blk ----
blk VEM-
blk ----
blk VEM-
blk ----
blk VEM-
blk ----
blk VEM-
blk ----
blk VEM-
blk VEM-
blk VEM-
blk VEM-
blk VEM-
blk VEM-
blk VEM-
blk VEM-
blk VEM-
blk VEM-
blk VEM-
blk VEM-
blk VEM-
blk VEM-
blk VEM-
blk VEM-
blk VEM-
blk VEM-
blk VEM-
blk VEM-
blk VEM-
blk VEM-
blk VEM-
blk VEM-
blk VEM-
blk ----
blk VEM-
blk VEM-
blk VEM-
blk VEM-
blk VEM-
blk VEM-
blk VE--
blk V---
blk VEM-
blk VEM-
blk VE--
blk VEM-
blk VE--
blk ----
blk VEM-
blk ----
blk VEM-
blk ----
blk VEM-
blk ----
blk VEM-
blk ----
blk VEM-
blk ----
blk VEM-
blk ----
blk VEM-
blk ----
blk VEM-
blk ----
blk VEM-
blk ----
blk VEM-
blk ----
blk VEM-
blk ----
blk VEM-
blk ----
blk VEM-
blk ----
blk VEM-
blk ----
blk VEM-
blk ----
blk VEM-
blk ----
blk VEM-
blk VEM-
blk V---
blk VEM-
blk V---
blk ----
blk VEM-
blk ----
blk VEM-
blk VEM-
blk VEM-
blk ----
blk VEM-
blk ----
blk VEM-
blk ----
blk VEM-
blk VEM-
blk V---
blk VEM-
blk V---
blk ----
blk VEM-
blk ----
blk VEM-
blk ----
blk VEM-
blk ----
blk ----
blk ----
blk ----
blk ----
blk ----
blk ----
blk V---
blk ----
blk V---
blk ----
blk ----
blk ----
blk ----
blk ----
blk ----
blk ----
blk ----
blk ----
blk ----
blk ----
blk ----
blk ----
blk ----
blk ----
blk ----
blk ----
blk ----
blk ----
blk ----
blk ----
blk V---
blk ----
blk ----
blk ----
blk ----
blk ----
blk ----
blk ----
blk V---
blk ----
blk ----
blk ----
blk ----
blk ----
blk ----
blk ----
blk ----
blk ----
blk ----
blk ----
blk ----
blk ----
blk ----
blk ----
blk ----
blk ----
blk ----
blk ----
blk ----
blk ----
blk ----
blk ----
blk ----
blk ----
blk ----
blk ----
blk ----
blk ----
blk ----
blk ----
blk VE--
blk ----
blk VEM-
blk ----
blk ----
blk ----
blk ----
blk ----
blk ----
blk ----
blk ----
blk ----
blk ----
blk ----
blk ----
blk ----
blk ----
blk ----
blk ----
blk ----
blk ----
blk ----
blk ----
blk ----
blk ----
blk ----
blk ----
blk ----
blk ----
blk ----
blk ----
blk ----
blk ----
blk ----
blk ----
blk ----
blk VEM-
blk ----
blk ----
blk ----
blk ----
blk ----
blk ----
blk ----
blk ----
blk ----
blk ----
blk ----
blk ----
blk ----
blk ----
blk ----
blk VE--
blk ----
blk ----
blk ----
blk ----
blk ----
blk ----
blk ----
blk ----
blk ----
blk ----
blk ----
blk ----
blk ----
blk ----
blk ----
blk ----
blk ----
blk ----
blk ----
blk ----
blk ----
blk ----
blk ----
blk ----
blk ----
blk ----
blk ----
blk ----
blk ----
blk ----
blk ----
blk ----
blk ----
blk ----
blk ----
blk ----
blk ----
blk ----
blk ----
blk ----
blk ----
blk VEM-
blk ----
blk ----
blk ----
blk ----
blk ----
blk VE--
blk ----
blk VEM-
blk ----
blk VEM-
blk VEM-
blk VE--
blk ----
blk ----
blk ----
blk ----
blk ----
blk ----
blk ----
blk ----
blk ----
blk ----
blk ----
blk V---
blk ----
blk V---
blk ----
blk VEM-
blk ----
blk ----
blk ----
blk V---
blk ----
blk V---
blk ----
blk ----
blk ----
blk ----
blk ----
blk V---
blk ----
blk ----
blk ----
blk ----
blk ----
blk ----
blk ----
blk ----
blk ----
blk ----
blk ----
blk ----
blk ----
blk ----
blk ----
blk ----
blk ----
blk ----
blk ----
blk V---
blk ----
blk VEM-
blk ----
blk VEM-
blk ----
blk VEM-
blk ----
blk ----
blk ----
blk ----
blk ----
blk ----
blk ----
blk V---
blk ----
blk ----
blk ----
blk ----
blk ----
blk ----
blk ----
blk VEM-
blk ----
blk ----
blk ----
blk ----
blk ----
blk ----
blk ----
blk ----
blk ----
blk VE--
blk ----
blk ----
blk ----
blk VEM-
blk ----
blk VEM-
blk ----
blk ----
blk ----
blk ----
blk ----
blk ----
blk ----
blk ----
blk ----
blk ----
blk ----
blk ----
blk ----
blk ----
blk ----
blk ----
blk ----
blk ----
blk ----
blk ----
blk ----
blk ----
blk ----
blk ----
blk ----
blk ----
blk ----
blk ----
blk ----
blk ----
blk ----
blk ----
blk ----
blk ----
blk ----
blk ----
blk ----
blk VE--
blk ----
blk VE--
blk ----
blk V---
blk ----
blk V---
blk ----
blk ----
blk ----
blk VE--
blk ----
blk V---
blk ----
blk ----
blk ----
blk ----
blk ----
blk ----
blk ----
blk ----
blk ----
blk ----
blk ----
blk ----
blk ----
blk VE--
blk ----
blk ----
blk ----
blk ----
blk ----
blk ----
blk ----
blk ----
blk ----
blk VE--
blk ----
blk ----
blk ----
blk ----
blk ----
blk VE--
blk ----
blk VE--
blk ----
blk VE--
blk ----
blk ----
blk ----
blk ----
blk ----
blk ----
blk ----
blk ----
blk ----
blk ----
blk ----
blk ----
blk ----
blk VEM-
blk ----
blk ----
blk ----
blk ----
blk ----
blk ----
blk ----
blk ----
blk ----
blk ----
blk ----
blk ----
blk ----
blk ----
blk ----
blk VEM-
blk ----
blk ----
blk ----
blk ----
blk ----
blk ----
blk ----
blk ----
blk ----
blk ----
blk ----
blk ----
blk ----
blk ----
blk ----
blk ----
blk ----
blk ----
blk ----
blk ----
blk ----
blk ----
blk ----
blk ----
blk ----
blk ----
blk ----
blk ----
blk ----
blk ----
blk ----
blk ----
blk ----
blk ----
blk ----
blk ----
blk ----
blk ----
blk ----
blk ----
blk ----
blk ----
blk ----
blk ----
blk ----
blk ----
blk ----
blk ----
blk ----
blk ----
blk ----
blk ----
blk ----
blk VE--
blk ----
blk ----
blk ----
blk ----
blk ----
blk ----
blk ----
blk ----
blk ----
blk ----
blk ----
blk ----
blk ----
blk ----
blk ----
blk ----
blk ----
blk ----
blk ----
blk ----

***** LOKESH print dcache AFTER invalidate! *****
blk ----
blk ----
blk ----
blk ----
blk ----
blk ----
blk ----
blk ----
blk ----
blk ----
blk ----
blk ----
blk ----
blk ----
blk ----
blk ----
blk ----
blk ----
blk ----
blk ----
blk ----
blk ----
blk ----
blk ----
blk ----
blk ----
blk ----
blk ----
blk ----
blk ----
blk ----
blk ----
blk ----
blk ----
blk ----
blk ----
blk ----
blk ----
blk ----
blk ----
blk ----
blk ----
blk ----
blk ----
blk ----
blk ----
blk ----
blk ----
blk ----
blk ----
blk ----
blk ----
blk ----
blk ----
blk ----
blk ----
blk ----
blk ----
blk ----
blk ----
blk ----
blk ----
blk ----
blk ----
blk ----
blk ----
blk ----
blk ----
blk ----
blk ----
blk ----
blk ----
blk ----
blk ----
blk ----
blk ----
blk ----
blk ----
blk ----
blk ----
blk ----
blk ----
blk ----
blk ----
blk ----
blk ----
blk ----
blk ----
blk ----
blk ----
blk ----
blk ----
blk ----
blk ----
blk ----
blk ----
blk ----
blk ----
blk ----
blk ----
blk ----
blk ----
blk ----
blk ----
blk ----
blk ----
blk ----
blk ----
blk ----
blk ----
blk ----
blk ----
blk ----
blk ----
blk ----
blk ----
blk ----
blk ----
blk ----
blk ----
blk ----
blk ----
blk ----
blk ----
blk ----
blk ----
blk ----
blk ----
blk ----
blk ----
blk ----
blk ----
blk ----
blk ----
blk ----
blk ----
blk ----
blk ----
blk ----
blk ----
blk ----
blk ----
blk ----
blk ----
blk ----
blk ----
blk ----
blk ----
blk ----
blk ----
blk ----
blk ----
blk ----
blk ----
blk ----
blk ----
blk ----
blk ----
blk ----
blk ----
blk ----
blk ----
blk ----
blk ----
blk ----
blk ----
blk ----
blk ----
blk ----
blk ----
blk ----
blk ----
blk ----
blk ----
blk ----
blk ----
blk ----
blk ----
blk ----
blk ----
blk ----
blk ----
blk ----
blk ----
blk ----
blk ----
blk ----
blk ----
blk ----
blk ----
blk ----
blk ----
blk ----
blk ----
blk ----
blk ----
blk ----
blk ----
blk ----
blk ----
blk ----
blk ----
blk ----
blk ----
blk ----
blk ----
blk ----
blk ----
blk ----
blk ----
blk ----
blk ----
blk ----
blk ----
blk ----
blk ----
blk ----
blk ----
blk ----
blk ----
blk ----
blk ----
blk ----
blk ----
blk ----
blk ----
blk ----
blk ----
blk ----
blk ----
blk ----
blk ----
blk ----
blk ----
blk ----
blk ----
blk ----
blk ----
blk ----
blk ----
blk ----
blk ----
blk ----
blk ----
blk ----
blk ----
blk ----
blk ----
blk ----
blk ----
blk ----
blk ----
blk ----
blk ----
blk ----
blk ----
blk ----
blk ----
blk ----
blk ----
blk ----
blk ----
blk ----
blk ----
blk ----
blk ----
blk ----
blk ----
blk ----
blk ----
blk ----
blk ----
blk ----
blk ----
blk ----
blk ----
blk ----
blk ----
blk ----
blk ----
blk ----
blk ----
blk ----
blk ----
blk ----
blk ----
blk ----
blk ----
blk ----
blk ----
blk ----
blk ----
blk ----
blk ----
blk ----
blk ----
blk ----
blk ----
blk ----
blk ----
blk ----
blk ----
blk ----
blk ----
blk ----
blk ----
blk ----
blk ----
blk ----
blk ----
blk ----
blk ----
blk ----
blk ----
blk ----
blk ----
blk ----
blk ----
blk ----
blk ----
blk ----
blk ----
blk ----
blk ----
blk ----
blk ----
blk ----
blk ----
blk ----
blk ----
blk ----
blk ----
blk ----
blk ----
blk ----
blk ----
blk ----
blk ----
blk ----
blk ----
blk ----
blk ----
blk ----
blk ----
blk ----
blk ----
blk ----
blk ----
blk ----
blk ----
blk ----
blk ----
blk ----
blk ----
blk ----
blk ----
blk ----
blk ----
blk ----
blk ----
blk ----
blk ----
blk ----
blk ----
blk ----
blk ----
blk ----
blk ----
blk ----
blk ----
blk ----
blk ----
blk ----
blk ----
blk ----
blk ----
blk ----
blk ----
blk ----
blk ----
blk ----
blk ----
blk ----
blk ----
blk ----
blk ----
blk ----
blk ----
blk ----
blk ----
blk ----
blk ----
blk ----
blk ----
blk ----
blk ----
blk ----
blk ----
blk ----
blk ----
blk ----
blk ----
blk ----
blk ----
blk ----
blk ----
blk ----
blk ----
blk ----
blk ----
blk ----
blk ----
blk ----
blk ----
blk ----
blk ----
blk ----
blk ----
blk ----
blk ----
blk ----
blk ----
blk ----
blk ----
blk ----
blk ----
blk ----
blk ----
blk ----
blk ----
blk ----
blk ----
blk ----
blk ----
blk ----
blk ----
blk ----
blk ----
blk ----
blk ----
blk ----
blk ----
blk ----
blk ----
blk ----
blk ----
blk ----
blk ----
blk ----
blk ----
blk ----
blk ----
blk ----
blk ----
blk ----
blk ----
blk ----
blk ----
blk ----
blk ----
blk ----
blk ----
blk ----
blk ----
blk ----
blk ----
blk ----
blk ----
blk ----
blk ----
blk ----
blk ----
blk ----
blk ----
blk ----
blk ----
blk ----
blk ----
blk ----
blk ----
blk ----
blk ----
blk ----
blk ----
blk ----
blk ----
blk ----
blk ----
blk ----
blk ----
blk ----
blk ----
blk ----
blk ----
blk ----
blk ----
blk ----
blk ----
blk ----
blk ----
blk ----
blk ----
blk ----
blk ----
blk ----
blk ----
blk ----
blk ----
blk ----
blk ----
blk ----
blk ----
blk ----
blk ----
blk ----
blk ----
blk ----
blk ----
blk ----
blk ----
blk ----
blk ----
blk ----
blk ----
blk ----
blk ----
blk ----
blk ----
blk ----
blk ----
blk ----
blk ----
blk ----
blk ----
blk ----
blk ----
blk ----
blk ----
blk ----
blk ----
blk ----
blk ----
blk ----
blk ----
blk ----
blk ----
blk ----
blk ----
blk ----
blk ----
blk ----
blk ----
blk ----
blk ----
blk ----
blk ----
blk ----
blk ----
blk ----
blk ----
blk ----
blk ----
blk ----
blk ----
blk ----
blk ----
blk ----
blk ----
blk ----
blk ----
blk ----
blk ----
blk ----
blk ----
blk ----
blk ----
blk ----
blk ----
blk ----
blk ----
blk ----
blk ----
blk ----
blk ----
blk ----
blk ----
blk ----
blk ----
blk ----
blk ----
blk ----
blk ----
blk ----
blk ----
blk ----
blk ----
blk ----
blk ----
blk ----
blk ----
blk ----
blk ----
blk ----
blk ----
blk ----
blk ----
blk ----
blk ----
blk ----
blk ----
blk ----
blk ----
blk ----
blk ----
blk ----
blk ----
blk ----
blk ----
blk ----
blk ----
blk ----
blk ----
blk ----
blk ----
blk ----
blk ----
blk ----
blk ----
blk ----
blk ----
blk ----
blk ----
blk ----
blk ----
blk ----
blk ----
blk ----
blk ----
blk ----
blk ----
blk ----
blk ----
blk ----
blk ----
blk ----
blk ----
blk ----
blk ----
blk ----
blk ----
blk ----
blk ----
blk ----
blk ----
blk ----
blk ----
blk ----
blk ----
blk ----
blk ----
blk ----
blk ----
blk ----
blk ----
blk ----
blk ----
blk ----
blk ----
blk ----
blk ----
blk ----
blk ----
blk ----
blk ----
blk ----
blk ----
blk ----
blk ----
blk ----
blk ----
blk ----
blk ----
blk ----
blk ----
blk ----
blk ----
blk ----
blk ----
blk ----
blk ----
blk ----
blk ----
blk ----
blk ----
blk ----
blk ----
blk ----
blk ----
blk ----
blk ----
blk ----
blk ----
blk ----
blk ----
blk ----
blk ----
blk ----
blk ----
blk ----
blk ----
blk ----
blk ----
blk ----
blk ----
blk ----
blk ----
blk ----
blk ----
blk ----
blk ----
blk ----
blk ----
blk ----
blk ----
blk ----
blk ----
blk ----
blk ----
blk ----
blk ----
blk ----
blk ----
blk ----
blk ----
blk ----
blk ----
blk ----
blk ----
blk ----
blk ----
blk ----
blk ----
blk ----
blk ----
blk ----
blk ----
blk ----
blk ----
blk ----
blk ----
blk ----
blk ----
blk ----
blk ----
blk ----
blk ----
blk ----
blk ----
blk ----
blk ----
blk ----
blk ----
blk ----
blk ----
blk ----
blk ----
blk ----
blk ----
blk ----
blk ----
blk ----
blk ----
blk ----
blk ----
blk ----
blk ----
blk ----
blk ----
blk ----
blk ----
blk ----
blk ----
blk ----
blk ----
blk ----
blk ----
blk ----
blk ----
blk ----
blk ----
blk ----
blk ----
blk ----
blk ----
blk ----
blk ----
blk ----
blk ----
blk ----
blk ----
blk ----
blk ----
blk ----
blk ----
blk ----
blk ----
blk ----
blk ----
blk ----
blk ----
blk ----
blk ----
blk ----
blk ----
blk ----
blk ----
blk ----
blk ----
blk ----
blk ----
blk ----
blk ----
blk ----
blk ----
blk ----
blk ----
blk ----
blk ----
blk ----
blk ----
blk ----
blk ----
blk ----
blk ----
blk ----
blk ----
blk ----
blk ----
blk ----
blk ----
blk ----
blk ----
blk ----
blk ----
blk ----
blk ----
blk ----
blk ----
blk ----
blk ----
blk ----
blk ----
blk ----
blk ----
blk ----
blk ----
blk ----
blk ----
blk ----
blk ----
blk ----
blk ----
blk ----
blk ----
blk ----
blk ----
blk ----
blk ----
blk ----
blk ----
blk ----
blk ----
blk ----
blk ----
blk ----
blk ----
blk ----
blk ----
blk ----
blk ----
blk ----
blk ----
blk ----
blk ----
blk ----
blk ----
blk ----
blk ----
blk ----
blk ----
blk ----
blk ----
blk ----
blk ----
blk ----
blk ----
blk ----
blk ----
blk ----
blk ----
blk ----
blk ----
blk ----
blk ----
blk ----
blk ----
blk ----
blk ----
blk ----
blk ----
blk ----
blk ----
blk ----
blk ----
blk ----
blk ----
blk ----
blk ----
blk ----
blk ----
blk ----
blk ----
blk ----
blk ----
blk ----
blk ----
blk ----
blk ----
blk ----
blk ----
blk ----
blk ----
blk ----
blk ----
blk ----
blk ----
blk ----
blk ----
blk ----
blk ----
blk ----
blk ----
blk ----
blk ----
blk ----
blk ----
blk ----
blk ----
blk ----
blk ----
blk ----
blk ----
blk ----
blk ----
blk ----
blk ----
blk ----
blk ----
blk ----
blk ----
blk ----
blk ----
blk ----
blk ----
blk ----
blk ----
blk ----
blk ----
blk ----
blk ----
blk ----
blk ----
blk ----
blk ----
blk ----
blk ----
blk ----
blk ----
blk ----
blk ----
blk ----
blk ----
blk ----
blk ----
blk ----
blk ----
blk ----
blk ----
blk ----
blk ----
blk ----
blk ----
blk ----
blk ----
blk ----
blk ----
blk ----
blk ----
blk ----
blk ----
blk ----
blk ----
blk ----
blk ----
blk ----
blk ----
blk ----
blk ----
blk ----
blk ----
blk ----
blk ----
blk ----
blk ----
blk ----
blk ----
blk ----
blk ----
blk ----
blk ----
blk ----
blk ----
blk ----
blk ----
info: Increasing stack size by one page.
info: Increasing stack size by one page.
info: Increasing stack size by one page.
info: Increasing stack size by one page.
info: Increasing stack size by one page.
info: Increasing stack size by one page.
info: Increasing stack size by one page.
info: Increasing stack size by one page.
info: Increasing stack size by one page.
info: Increasing stack size by one page.
info: Increasing stack size by one page.
info: Increasing stack size by one page.
info: Increasing stack size by one page.
info: Increasing stack size by one page.
info: Increasing stack size by one page.
info: Increasing stack size by one page.
info: Increasing stack size by one page.
info: Increasing stack size by one page.
info: Increasing stack size by one page.
info: Increasing stack size by one page.
Exiting @ tick 55251610000 because target called exit()
