gem5 Simulator System.  http://gem5.org
gem5 is copyrighted software; use the --copyright option for details.

gem5 compiled Feb  6 2015 12:02:46
gem5 started Feb  6 2015 12:03:57
gem5 executing on bigbird
command line: ./build/ARM/gem5.opt --debug-flags=Drain configs/example/se.py --cmd=/research/ljindal/445.gobmk --options=--quiet --mode gtp --input=/research/ljindal/nicklas4.tst --output=445.gobmk.stdout --errout=445.gobmk.stderr --num-cpus=1 --caches -I 10000000000 --cpu-type=detailed
Global frequency set at 1000000000000 ticks per second
      0: system.cpu.isa: ISA system set to: 0 0x5028000
*****TRANSFORM totalNumRegs = 256+256+1280
*********TRANSFORM REG_IDX after init is 1792
0: system.remote_gdb.listener: listening for remote gdb #0 on port 7002
**** REAL SIMULATION ****
info: Entering event queue @ 0.  Starting simulation...
warn: CP14 unimplemented crn[0], opc1[6], crm[3], opc2[4]
warn: CP14 unimplemented crn[8], opc1[2], crm[9], opc2[4]
*****TRANSFORM going to call drain()
13270500: system.cpu: Draining...
13270500: system.cpu: Main CPU structures not drained.
13270500: system.cpu: Fetch not drained.
13270500: system.cpu: Decode not drained.
13270500: system.cpu: Rename not drained.
13270500: system.cpu.iew.lsq: Not drained, SQ not empty.
13270500: system.cpu: IEW not drained.
13270500: system.cpu: CPU not drained
*****TRANSFORM DONE with drain()
13270500: system.cpu: Main CPU structures not drained.
13270500: system.cpu: Fetch not drained.
13270500: system.cpu: Decode not drained.
13270500: system.cpu: Rename not drained.
13270500: system.cpu.iew.lsq: Not drained, SQ not empty.
13270500: system.cpu: IEW not drained.
13271000: system.cpu: Main CPU structures not drained.
13271000: system.cpu: Fetch not drained.
13271000: system.cpu: Decode not drained.
13271000: system.cpu: Rename not drained.
13271000: system.cpu.iew.lsq: Not drained, SQ not empty.
13271000: system.cpu: IEW not drained.
13271500: system.cpu: Main CPU structures not drained.
13271500: system.cpu: Fetch not drained.
13271500: system.cpu: Decode not drained.
13271500: system.cpu: Rename not drained.
13271500: system.cpu.iew.lsq: Not drained, SQ not empty.
13271500: system.cpu: IEW not drained.
13272000: system.cpu: Main CPU structures not drained.
13272000: system.cpu: Fetch not drained.
13272000: system.cpu: Decode not drained.
13272000: system.cpu: Rename not drained.
13272000: system.cpu.iew.lsq: Not drained, SQ not empty.
13272000: system.cpu: IEW not drained.
13272500: system.cpu: Main CPU structures not drained.
13272500: system.cpu: Fetch not drained.
13272500: system.cpu: Decode not drained.
13272500: system.cpu: Rename not drained.
13272500: system.cpu.iew.lsq: Not drained, SQ not empty.
13272500: system.cpu: IEW not drained.
13273000: system.cpu: Main CPU structures not drained.
13273000: system.cpu: Fetch not drained.
13273000: system.cpu: Decode not drained.
13273000: system.cpu: Rename not drained.
13273000: system.cpu.iew.lsq: Not drained, SQ not empty.
13273000: system.cpu: IEW not drained.
13273500: system.cpu: Main CPU structures not drained.
13273500: system.cpu: Fetch not drained.
13273500: system.cpu: Decode not drained.
13273500: system.cpu: Rename not drained.
13273500: system.cpu.iew.lsq: Not drained, SQ not empty.
13273500: system.cpu: IEW not drained.
13274000: system.cpu: Main CPU structures not drained.
13274000: system.cpu: Fetch not drained.
13274000: system.cpu: Decode not drained.
13274000: system.cpu: Rename not drained.
13274000: system.cpu.iew.lsq: Not drained, SQ not empty.
13274000: system.cpu: IEW not drained.
13274500: system.cpu: Main CPU structures not drained.
13274500: system.cpu: Fetch not drained.
13274500: system.cpu: Decode not drained.
13274500: system.cpu: Rename not drained.
13274500: system.cpu.iew.lsq: Not drained, SQ not empty.
13274500: system.cpu: IEW not drained.
13275000: system.cpu: Main CPU structures not drained.
13275000: system.cpu: Fetch not drained.
13275000: system.cpu: Decode not drained.
13275000: system.cpu: Rename not drained.
13275000: system.cpu.iew.lsq: Not drained, SQ not empty.
13275000: system.cpu: IEW not drained.
13275500: system.cpu: Main CPU structures not drained.
13275500: system.cpu: Fetch not drained.
13275500: system.cpu: Decode not drained.
13275500: system.cpu: Rename not drained.
13275500: system.cpu.iew.lsq: Not drained, SQ not empty.
13275500: system.cpu: IEW not drained.
13275500: system.cpu: Commit not drained.
13276000: system.cpu: Main CPU structures not drained.
13276000: system.cpu: Fetch not drained.
13276000: system.cpu: Rename not drained.
13276000: system.cpu.iew.lsq: Not drained, SQ not empty.
13276000: system.cpu: IEW not drained.
13276000: system.cpu: Commit not drained.
13276500: system.cpu: Main CPU structures not drained.
13276500: system.cpu: Fetch not drained.
13276500: system.cpu: Rename not drained.
13276500: system.cpu.iew.lsq: Not drained, SQ not empty.
13276500: system.cpu: IEW not drained.
13276500: system.cpu: Commit not drained.
13277000: system.cpu: Main CPU structures not drained.
13277000: system.cpu: Fetch not drained.
13277000: system.cpu: Rename not drained.
13277000: system.cpu.iew.lsq: Not drained, SQ not empty.
13277000: system.cpu: IEW not drained.
13277000: system.cpu: Commit not drained.
13277500: system.cpu.commit: Draining: 0:(0xba5d4=>0xba5d8).(0=>1)
13277500: system.cpu.fetch: 0: Thread drained.
13277500: system.cpu: Main CPU structures not drained.
13277500: system.cpu: Fetch not drained.
13277500: system.cpu: Rename not drained.
13277500: system.cpu.iew.lsq: Not drained, SQ not empty.
13277500: system.cpu: IEW not drained.
13277500: system.cpu: Commit not drained.
13278000: system.cpu: Main CPU structures not drained.
13278000: system.cpu: Fetch not drained.
13278000: system.cpu: Rename not drained.
13278000: system.cpu.iew.lsq: Not drained, SQ not empty.
13278000: system.cpu: IEW not drained.
13278000: system.cpu: Commit not drained.
13278500: system.cpu: Main CPU structures not drained.
13278500: system.cpu: Fetch not drained.
13278500: system.cpu: Rename not drained.
13278500: system.cpu.iew.lsq: Not drained, SQ not empty.
13278500: system.cpu: IEW not drained.
13278500: system.cpu: Commit not drained.
13279000: system.cpu: Main CPU structures not drained.
13279000: system.cpu: Rename not drained.
13279000: system.cpu.iew.lsq: Not drained, SQ not empty.
13279000: system.cpu: IEW not drained.
13279000: system.cpu: Commit not drained.
13279500: system.cpu.iew.lsq: Not drained, SQ not empty.
13279500: system.cpu: IEW not drained.
13280000: system.cpu.iew.lsq: Not drained, SQ not empty.
13280000: system.cpu: IEW not drained.
13280500: system.cpu.iew.lsq: Not drained, SQ not empty.
13280500: system.cpu: IEW not drained.
13281000: system.cpu.iew.lsq: Not drained, SQ not empty.
13281000: system.cpu: IEW not drained.
13281500: system.cpu.iew.lsq: Not drained, SQ not empty.
13281500: system.cpu: IEW not drained.
13282000: system.cpu.iew.lsq: Not drained, SQ not empty.
13282000: system.cpu: IEW not drained.
13282500: system.cpu.iew.lsq: Not drained, SQ not empty.
13282500: system.cpu: IEW not drained.
13283000: system.cpu.iew.lsq: Not drained, SQ not empty.
13283000: system.cpu: IEW not drained.
13283500: system.cpu.iew.lsq: Not drained, SQ not empty.
13283500: system.cpu: IEW not drained.
13284000: system.cpu.iew.lsq: Not drained, SQ not empty.
13284000: system.cpu: IEW not drained.
13284500: system.cpu.iew.lsq: Not drained, SQ not empty.
13284500: system.cpu: IEW not drained.
13285000: system.cpu.iew.lsq: Not drained, SQ not empty.
13285000: system.cpu: IEW not drained.
13285500: system.cpu.iew.lsq: Not drained, SQ not empty.
13285500: system.cpu: IEW not drained.
13286000: system.cpu.iew.lsq: Not drained, SQ not empty.
13286000: system.cpu: IEW not drained.
13303500: system.cpu.iew.lsq: Not drained, SQ not empty.
13303500: system.cpu: IEW not drained.
13304000: system.cpu.iew.lsq: Not drained, SQ not empty.
13304000: system.cpu: IEW not drained.
13304500: system.cpu.iew.lsq: Not drained, SQ not empty.
13304500: system.cpu: IEW not drained.
13305000: system.cpu.iew.lsq: Not drained, SQ not empty.
13305000: system.cpu: IEW not drained.
13305500: system.cpu.iew.lsq: Not drained, SQ not empty.
13305500: system.cpu: IEW not drained.
13306000: system.cpu.iew.lsq: Not drained, SQ not empty.
13306000: system.cpu: IEW not drained.
13306500: system.cpu.iew.lsq: Not drained, SQ not empty.
13306500: system.cpu: IEW not drained.
13307000: system.cpu.iew.lsq: Not drained, SQ not empty.
13307000: system.cpu: IEW not drained.
13307500: system.cpu.iew.lsq: Not drained, SQ not empty.
13307500: system.cpu: IEW not drained.
13308000: system.cpu.iew.lsq: Not drained, SQ not empty.
13308000: system.cpu: IEW not drained.
13308500: system.cpu.iew.lsq: Not drained, SQ not empty.
13308500: system.cpu: IEW not drained.
13310500: system.cpu.iew.lsq: Not drained, SQ not empty.
13310500: system.cpu: IEW not drained.
13311000: system.cpu.iew.lsq: Not drained, SQ not empty.
13311000: system.cpu: IEW not drained.
13311500: system.cpu.iew.lsq: Not drained, SQ not empty.
13311500: system.cpu: IEW not drained.
13312000: system.cpu.iew.lsq: Not drained, SQ not empty.
13312000: system.cpu: IEW not drained.
13312500: system.cpu.iew.lsq: Not drained, SQ not empty.
13312500: system.cpu: IEW not drained.
13313000: system.cpu.iew.lsq: Not drained, SQ not empty.
13313000: system.cpu: IEW not drained.
13313500: system.cpu.iew.lsq: Not drained, SQ not empty.
13313500: system.cpu: IEW not drained.
13314000: system.cpu.iew.lsq: Not drained, SQ not empty.
13314000: system.cpu: IEW not drained.
13314500: system.cpu.iew.lsq: Not drained, SQ not empty.
13314500: system.cpu: IEW not drained.
13315000: system.cpu.iew.lsq: Not drained, SQ not empty.
13315000: system.cpu: IEW not drained.
13315500: system.cpu.iew.lsq: Not drained, SQ not empty.
13315500: system.cpu: IEW not drained.
13316000: system.cpu.iew.lsq: Not drained, SQ not empty.
13316000: system.cpu: IEW not drained.
13316500: system.cpu.iew.lsq: Not drained, SQ not empty.
13316500: system.cpu: IEW not drained.
13317000: system.cpu.iew.lsq: Not drained, SQ not empty.
13317000: system.cpu: IEW not drained.
13317500: system.cpu.iew.lsq: Not drained, SQ not empty.
13317500: system.cpu: IEW not drained.
13318000: system.cpu.iew.lsq: Not drained, SQ not empty.
13318000: system.cpu: IEW not drained.
13318500: system.cpu.iew.lsq: Not drained, SQ not empty.
13318500: system.cpu: IEW not drained.
13319000: system.cpu.iew.lsq: Not drained, SQ not empty.
13319000: system.cpu: IEW not drained.
13319500: system.cpu.iew.lsq: Not drained, SQ not empty.
13319500: system.cpu: IEW not drained.
13320000: system.cpu.iew.lsq: Not drained, SQ not empty.
13320000: system.cpu: IEW not drained.
13320500: system.cpu.iew.lsq: Not drained, SQ not empty.
13320500: system.cpu: IEW not drained.
*****TRANSFORM going to print the reg mappings now!
*****INT REG mappings total TheISA::NumIntRegs:43
Archreg:0 Phyreg lookup:66 value:5180228
Archreg:1 Phyreg lookup:200 value:0
Archreg:2 Phyreg lookup:127 value:172280
Archreg:3 Phyreg lookup:148 value:5186508
Archreg:4 Phyreg lookup:253 value:0
Archreg:5 Phyreg lookup:123 value:4291532
Archreg:6 Phyreg lookup:48 value:5360388
Archreg:7 Phyreg lookup:98 value:4970092
Archreg:8 Phyreg lookup:78 value:0
Archreg:9 Phyreg lookup:206 value:3755008
Archreg:10 Phyreg lookup:53 value:5536516
Archreg:11 Phyreg lookup:7 value:4
Archreg:12 Phyreg lookup:107 value:0
Archreg:13 Phyreg lookup:235 value:3204447080
Archreg:14 Phyreg lookup:201 value:557335
Archreg:15 Phyreg lookup:128 value:0
Archreg:16 Phyreg lookup:16 value:0
Archreg:17 Phyreg lookup:17 value:0
Archreg:18 Phyreg lookup:18 value:0
Archreg:19 Phyreg lookup:19 value:0
Archreg:20 Phyreg lookup:20 value:0
Archreg:21 Phyreg lookup:21 value:0
Archreg:22 Phyreg lookup:22 value:0
Archreg:23 Phyreg lookup:23 value:0
Archreg:24 Phyreg lookup:24 value:0
Archreg:25 Phyreg lookup:25 value:0
Archreg:26 Phyreg lookup:26 value:0
Archreg:27 Phyreg lookup:27 value:0
Archreg:28 Phyreg lookup:28 value:0
Archreg:29 Phyreg lookup:29 value:0
Archreg:30 Phyreg lookup:30 value:0
Archreg:31 Phyreg lookup:31 value:0
Archreg:32 Phyreg lookup:32 value:0
Archreg:33 Phyreg lookup:33 value:0
Archreg:34 Phyreg lookup:34 value:0
Archreg:35 Phyreg lookup:60 value:767099
Archreg:36 Phyreg lookup:191 value:711663
Archreg:37 Phyreg lookup:37 value:0
Archreg:38 Phyreg lookup:38 value:0
Archreg:39 Phyreg lookup:39 value:0
Archreg:40 Phyreg lookup:40 value:0
Archreg:41 Phyreg lookup:41 value:0
Archreg:42 Phyreg lookup:42 value:0
*****FLOAT REG mappings total TheISA::NumFloatRegs:160
Archreg:0 Phyreg lookup:256 value:0
Archreg:1 Phyreg lookup:257 value:0
Archreg:2 Phyreg lookup:258 value:0
Archreg:3 Phyreg lookup:259 value:0
Archreg:4 Phyreg lookup:260 value:0
Archreg:5 Phyreg lookup:261 value:0
Archreg:6 Phyreg lookup:262 value:0
Archreg:7 Phyreg lookup:263 value:0
Archreg:8 Phyreg lookup:264 value:0
Archreg:9 Phyreg lookup:265 value:0
Archreg:10 Phyreg lookup:266 value:0
Archreg:11 Phyreg lookup:267 value:0
Archreg:12 Phyreg lookup:268 value:0
Archreg:13 Phyreg lookup:269 value:0
Archreg:14 Phyreg lookup:270 value:0
Archreg:15 Phyreg lookup:271 value:0
Archreg:16 Phyreg lookup:272 value:0
Archreg:17 Phyreg lookup:273 value:0
Archreg:18 Phyreg lookup:274 value:0
Archreg:19 Phyreg lookup:275 value:0
Archreg:20 Phyreg lookup:276 value:0
Archreg:21 Phyreg lookup:277 value:0
Archreg:22 Phyreg lookup:278 value:0
Archreg:23 Phyreg lookup:279 value:0
Archreg:24 Phyreg lookup:280 value:0
Archreg:25 Phyreg lookup:281 value:0
Archreg:26 Phyreg lookup:282 value:0
Archreg:27 Phyreg lookup:283 value:0
Archreg:28 Phyreg lookup:284 value:0
Archreg:29 Phyreg lookup:285 value:0
Archreg:30 Phyreg lookup:286 value:0
Archreg:31 Phyreg lookup:287 value:0
Archreg:32 Phyreg lookup:288 value:0
Archreg:33 Phyreg lookup:289 value:0
Archreg:34 Phyreg lookup:290 value:0
Archreg:35 Phyreg lookup:291 value:0
Archreg:36 Phyreg lookup:292 value:0
Archreg:37 Phyreg lookup:293 value:0
Archreg:38 Phyreg lookup:294 value:0
Archreg:39 Phyreg lookup:295 value:0
Archreg:40 Phyreg lookup:296 value:0
Archreg:41 Phyreg lookup:297 value:0
Archreg:42 Phyreg lookup:298 value:0
Archreg:43 Phyreg lookup:299 value:0
Archreg:44 Phyreg lookup:300 value:0
Archreg:45 Phyreg lookup:301 value:0
Archreg:46 Phyreg lookup:302 value:0
Archreg:47 Phyreg lookup:303 value:0
Archreg:48 Phyreg lookup:304 value:0
Archreg:49 Phyreg lookup:305 value:0
Archreg:50 Phyreg lookup:306 value:0
Archreg:51 Phyreg lookup:307 value:0
Archreg:52 Phyreg lookup:308 value:0
Archreg:53 Phyreg lookup:309 value:0
Archreg:54 Phyreg lookup:310 value:0
Archreg:55 Phyreg lookup:311 value:0
Archreg:56 Phyreg lookup:312 value:0
Archreg:57 Phyreg lookup:313 value:0
Archreg:58 Phyreg lookup:314 value:0
Archreg:59 Phyreg lookup:315 value:0
Archreg:60 Phyreg lookup:316 value:0
Archreg:61 Phyreg lookup:317 value:0
Archreg:62 Phyreg lookup:318 value:0
Archreg:63 Phyreg lookup:319 value:0
Archreg:64 Phyreg lookup:320 value:0
Archreg:65 Phyreg lookup:321 value:0
Archreg:66 Phyreg lookup:322 value:0
Archreg:67 Phyreg lookup:323 value:0
Archreg:68 Phyreg lookup:324 value:0
Archreg:69 Phyreg lookup:325 value:0
Archreg:70 Phyreg lookup:326 value:0
Archreg:71 Phyreg lookup:327 value:0
Archreg:72 Phyreg lookup:328 value:0
Archreg:73 Phyreg lookup:329 value:0
Archreg:74 Phyreg lookup:330 value:0
Archreg:75 Phyreg lookup:331 value:0
Archreg:76 Phyreg lookup:332 value:0
Archreg:77 Phyreg lookup:333 value:0
Archreg:78 Phyreg lookup:334 value:0
Archreg:79 Phyreg lookup:335 value:0
Archreg:80 Phyreg lookup:336 value:0
Archreg:81 Phyreg lookup:337 value:0
Archreg:82 Phyreg lookup:338 value:0
Archreg:83 Phyreg lookup:339 value:0
Archreg:84 Phyreg lookup:340 value:0
Archreg:85 Phyreg lookup:341 value:0
Archreg:86 Phyreg lookup:342 value:0
Archreg:87 Phyreg lookup:343 value:0
Archreg:88 Phyreg lookup:344 value:0
Archreg:89 Phyreg lookup:345 value:0
Archreg:90 Phyreg lookup:346 value:0
Archreg:91 Phyreg lookup:347 value:0
Archreg:92 Phyreg lookup:348 value:0
Archreg:93 Phyreg lookup:349 value:0
Archreg:94 Phyreg lookup:350 value:0
Archreg:95 Phyreg lookup:351 value:0
Archreg:96 Phyreg lookup:352 value:0
Archreg:97 Phyreg lookup:353 value:0
Archreg:98 Phyreg lookup:354 value:0
Archreg:99 Phyreg lookup:355 value:0
Archreg:100 Phyreg lookup:356 value:0
Archreg:101 Phyreg lookup:357 value:0
Archreg:102 Phyreg lookup:358 value:0
Archreg:103 Phyreg lookup:359 value:0
Archreg:104 Phyreg lookup:360 value:0
Archreg:105 Phyreg lookup:361 value:0
Archreg:106 Phyreg lookup:362 value:0
Archreg:107 Phyreg lookup:363 value:0
Archreg:108 Phyreg lookup:364 value:0
Archreg:109 Phyreg lookup:365 value:0
Archreg:110 Phyreg lookup:366 value:0
Archreg:111 Phyreg lookup:367 value:0
Archreg:112 Phyreg lookup:368 value:0
Archreg:113 Phyreg lookup:369 value:0
Archreg:114 Phyreg lookup:370 value:0
Archreg:115 Phyreg lookup:371 value:0
Archreg:116 Phyreg lookup:372 value:0
Archreg:117 Phyreg lookup:373 value:0
Archreg:118 Phyreg lookup:374 value:0
Archreg:119 Phyreg lookup:375 value:0
Archreg:120 Phyreg lookup:376 value:0
Archreg:121 Phyreg lookup:377 value:0
Archreg:122 Phyreg lookup:378 value:0
Archreg:123 Phyreg lookup:379 value:0
Archreg:124 Phyreg lookup:380 value:0
Archreg:125 Phyreg lookup:381 value:0
Archreg:126 Phyreg lookup:382 value:0
Archreg:127 Phyreg lookup:383 value:0
Archreg:128 Phyreg lookup:384 value:0
Archreg:129 Phyreg lookup:385 value:0
Archreg:130 Phyreg lookup:386 value:0
Archreg:131 Phyreg lookup:387 value:0
Archreg:132 Phyreg lookup:388 value:0
Archreg:133 Phyreg lookup:389 value:0
Archreg:134 Phyreg lookup:390 value:0
Archreg:135 Phyreg lookup:391 value:0
Archreg:136 Phyreg lookup:392 value:0
Archreg:137 Phyreg lookup:393 value:0
Archreg:138 Phyreg lookup:394 value:0
Archreg:139 Phyreg lookup:395 value:0
Archreg:140 Phyreg lookup:396 value:0
Archreg:141 Phyreg lookup:397 value:0
Archreg:142 Phyreg lookup:398 value:0
Archreg:143 Phyreg lookup:399 value:0
Archreg:144 Phyreg lookup:400 value:0
Archreg:145 Phyreg lookup:401 value:0
Archreg:146 Phyreg lookup:402 value:0
Archreg:147 Phyreg lookup:403 value:0
Archreg:148 Phyreg lookup:404 value:0
Archreg:149 Phyreg lookup:405 value:0
Archreg:150 Phyreg lookup:406 value:0
Archreg:151 Phyreg lookup:407 value:0
Archreg:152 Phyreg lookup:408 value:0
Archreg:153 Phyreg lookup:409 value:0
Archreg:154 Phyreg lookup:410 value:0
Archreg:155 Phyreg lookup:411 value:0
Archreg:156 Phyreg lookup:412 value:0
Archreg:157 Phyreg lookup:413 value:0
Archreg:158 Phyreg lookup:414 value:0
Archreg:159 Phyreg lookup:415 value:0
*****CC REG mappings total TheISA::NumCCRegs:6
Archreg:0 Phyreg lookup:617 value:0
Archreg:1 Phyreg lookup:616 value:1
Archreg:2 Phyreg lookup:643 value:0
Archreg:3 Phyreg lookup:515 value:0
Archreg:4 Phyreg lookup:851 value:0
Archreg:5 Phyreg lookup:517 value:0
restrict_intreg_mapping: Skipping phy:66 against regfile->numIntPhysRegs():256 with tf_regfile_scale_factor:2
restrict_intreg_mapping: REMAPPING phy:200 against regfile->numIntPhysRegs():256 with tf_regfile_scale_factor:2
REJECTING new phy:223old phy:200
ACCEPTING new phy:68old phy:223
restrict_intreg_mapping: Skipping phy:127 against regfile->numIntPhysRegs():256 with tf_regfile_scale_factor:2
restrict_intreg_mapping: REMAPPING phy:148 against regfile->numIntPhysRegs():256 with tf_regfile_scale_factor:2
REJECTING new phy:157old phy:148
ACCEPTING new phy:0old phy:157
restrict_intreg_mapping: REMAPPING phy:253 against regfile->numIntPhysRegs():256 with tf_regfile_scale_factor:2
ACCEPTING new phy:90old phy:253
restrict_intreg_mapping: Skipping phy:123 against regfile->numIntPhysRegs():256 with tf_regfile_scale_factor:2
restrict_intreg_mapping: Skipping phy:48 against regfile->numIntPhysRegs():256 with tf_regfile_scale_factor:2
restrict_intreg_mapping: Skipping phy:98 against regfile->numIntPhysRegs():256 with tf_regfile_scale_factor:2
restrict_intreg_mapping: Skipping phy:78 against regfile->numIntPhysRegs():256 with tf_regfile_scale_factor:2
restrict_intreg_mapping: REMAPPING phy:206 against regfile->numIntPhysRegs():256 with tf_regfile_scale_factor:2
ACCEPTING new phy:105old phy:206
restrict_intreg_mapping: Skipping phy:53 against regfile->numIntPhysRegs():256 with tf_regfile_scale_factor:2
restrict_intreg_mapping: Skipping phy:7 against regfile->numIntPhysRegs():256 with tf_regfile_scale_factor:2
restrict_intreg_mapping: Skipping phy:107 against regfile->numIntPhysRegs():256 with tf_regfile_scale_factor:2
restrict_intreg_mapping: REMAPPING phy:235 against regfile->numIntPhysRegs():256 with tf_regfile_scale_factor:2
REJECTING new phy:220old phy:235
REJECTING new phy:229old phy:220
ACCEPTING new phy:69old phy:229
restrict_intreg_mapping: REMAPPING phy:201 against regfile->numIntPhysRegs():256 with tf_regfile_scale_factor:2
REJECTING new phy:149old phy:201
REJECTING new phy:178old phy:149
REJECTING new phy:205old phy:178
ACCEPTING new phy:106old phy:205
restrict_intreg_mapping: Skipping phy:128 against regfile->numIntPhysRegs():256 with tf_regfile_scale_factor:2
restrict_intreg_mapping: Skipping phy:16 against regfile->numIntPhysRegs():256 with tf_regfile_scale_factor:2
restrict_intreg_mapping: Skipping phy:17 against regfile->numIntPhysRegs():256 with tf_regfile_scale_factor:2
restrict_intreg_mapping: Skipping phy:18 against regfile->numIntPhysRegs():256 with tf_regfile_scale_factor:2
restrict_intreg_mapping: Skipping phy:19 against regfile->numIntPhysRegs():256 with tf_regfile_scale_factor:2
restrict_intreg_mapping: Skipping phy:20 against regfile->numIntPhysRegs():256 with tf_regfile_scale_factor:2
restrict_intreg_mapping: Skipping phy:21 against regfile->numIntPhysRegs():256 with tf_regfile_scale_factor:2
restrict_intreg_mapping: Skipping phy:22 against regfile->numIntPhysRegs():256 with tf_regfile_scale_factor:2
restrict_intreg_mapping: Skipping phy:23 against regfile->numIntPhysRegs():256 with tf_regfile_scale_factor:2
restrict_intreg_mapping: Skipping phy:24 against regfile->numIntPhysRegs():256 with tf_regfile_scale_factor:2
restrict_intreg_mapping: Skipping phy:25 against regfile->numIntPhysRegs():256 with tf_regfile_scale_factor:2
restrict_intreg_mapping: Skipping phy:26 against regfile->numIntPhysRegs():256 with tf_regfile_scale_factor:2
restrict_intreg_mapping: Skipping phy:27 against regfile->numIntPhysRegs():256 with tf_regfile_scale_factor:2
restrict_intreg_mapping: Skipping phy:28 against regfile->numIntPhysRegs():256 with tf_regfile_scale_factor:2
restrict_intreg_mapping: Skipping phy:29 against regfile->numIntPhysRegs():256 with tf_regfile_scale_factor:2
restrict_intreg_mapping: Skipping phy:30 against regfile->numIntPhysRegs():256 with tf_regfile_scale_factor:2
restrict_intreg_mapping: Skipping phy:31 against regfile->numIntPhysRegs():256 with tf_regfile_scale_factor:2
restrict_intreg_mapping: Skipping phy:32 against regfile->numIntPhysRegs():256 with tf_regfile_scale_factor:2
restrict_intreg_mapping: Skipping phy:33 against regfile->numIntPhysRegs():256 with tf_regfile_scale_factor:2
restrict_intreg_mapping: Skipping phy:34 against regfile->numIntPhysRegs():256 with tf_regfile_scale_factor:2
restrict_intreg_mapping: Skipping phy:60 against regfile->numIntPhysRegs():256 with tf_regfile_scale_factor:2
restrict_intreg_mapping: REMAPPING phy:191 against regfile->numIntPhysRegs():256 with tf_regfile_scale_factor:2
ACCEPTING new phy:74old phy:191
restrict_intreg_mapping: Skipping phy:37 against regfile->numIntPhysRegs():256 with tf_regfile_scale_factor:2
restrict_intreg_mapping: Skipping phy:38 against regfile->numIntPhysRegs():256 with tf_regfile_scale_factor:2
restrict_intreg_mapping: Skipping phy:39 against regfile->numIntPhysRegs():256 with tf_regfile_scale_factor:2
restrict_intreg_mapping: Skipping phy:40 against regfile->numIntPhysRegs():256 with tf_regfile_scale_factor:2
restrict_intreg_mapping: Skipping phy:41 against regfile->numIntPhysRegs():256 with tf_regfile_scale_factor:2
restrict_intreg_mapping: Skipping phy:42 against regfile->numIntPhysRegs():256 with tf_regfile_scale_factor:2
*****TRANSFORM going to print the reg mappings now!
*****INT REG mappings total TheISA::NumIntRegs:43
Archreg:0 Phyreg lookup:66 value:5180228
Archreg:1 Phyreg lookup:68 value:5185708
Archreg:2 Phyreg lookup:127 value:172280
Archreg:3 Phyreg lookup:0 value:5185716
Archreg:4 Phyreg lookup:90 value:173064
Archreg:5 Phyreg lookup:123 value:4291532
Archreg:6 Phyreg lookup:48 value:5360388
Archreg:7 Phyreg lookup:98 value:4970092
Archreg:8 Phyreg lookup:78 value:0
Archreg:9 Phyreg lookup:105 value:5185724
Archreg:10 Phyreg lookup:53 value:5536516
Archreg:11 Phyreg lookup:7 value:4
Archreg:12 Phyreg lookup:107 value:0
Archreg:13 Phyreg lookup:69 value:173048
Archreg:14 Phyreg lookup:106 value:173032
Archreg:15 Phyreg lookup:128 value:0
Archreg:16 Phyreg lookup:16 value:0
Archreg:17 Phyreg lookup:17 value:0
Archreg:18 Phyreg lookup:18 value:0
Archreg:19 Phyreg lookup:19 value:0
Archreg:20 Phyreg lookup:20 value:0
Archreg:21 Phyreg lookup:21 value:0
Archreg:22 Phyreg lookup:22 value:0
Archreg:23 Phyreg lookup:23 value:0
Archreg:24 Phyreg lookup:24 value:0
Archreg:25 Phyreg lookup:25 value:0
Archreg:26 Phyreg lookup:26 value:0
Archreg:27 Phyreg lookup:27 value:0
Archreg:28 Phyreg lookup:28 value:0
Archreg:29 Phyreg lookup:29 value:0
Archreg:30 Phyreg lookup:30 value:0
Archreg:31 Phyreg lookup:31 value:0
Archreg:32 Phyreg lookup:32 value:0
Archreg:33 Phyreg lookup:33 value:0
Archreg:34 Phyreg lookup:34 value:0
Archreg:35 Phyreg lookup:60 value:767099
Archreg:36 Phyreg lookup:74 value:5185756
Archreg:37 Phyreg lookup:37 value:0
Archreg:38 Phyreg lookup:38 value:0
Archreg:39 Phyreg lookup:39 value:0
Archreg:40 Phyreg lookup:40 value:0
Archreg:41 Phyreg lookup:41 value:0
Archreg:42 Phyreg lookup:42 value:0
*****FLOAT REG mappings total TheISA::NumFloatRegs:160
Archreg:0 Phyreg lookup:256 value:0
Archreg:1 Phyreg lookup:257 value:0
Archreg:2 Phyreg lookup:258 value:0
Archreg:3 Phyreg lookup:259 value:0
Archreg:4 Phyreg lookup:260 value:0
Archreg:5 Phyreg lookup:261 value:0
Archreg:6 Phyreg lookup:262 value:0
Archreg:7 Phyreg lookup:263 value:0
Archreg:8 Phyreg lookup:264 value:0
Archreg:9 Phyreg lookup:265 value:0
Archreg:10 Phyreg lookup:266 value:0
Archreg:11 Phyreg lookup:267 value:0
Archreg:12 Phyreg lookup:268 value:0
Archreg:13 Phyreg lookup:269 value:0
Archreg:14 Phyreg lookup:270 value:0
Archreg:15 Phyreg lookup:271 value:0
Archreg:16 Phyreg lookup:272 value:0
Archreg:17 Phyreg lookup:273 value:0
Archreg:18 Phyreg lookup:274 value:0
Archreg:19 Phyreg lookup:275 value:0
Archreg:20 Phyreg lookup:276 value:0
Archreg:21 Phyreg lookup:277 value:0
Archreg:22 Phyreg lookup:278 value:0
Archreg:23 Phyreg lookup:279 value:0
Archreg:24 Phyreg lookup:280 value:0
Archreg:25 Phyreg lookup:281 value:0
Archreg:26 Phyreg lookup:282 value:0
Archreg:27 Phyreg lookup:283 value:0
Archreg:28 Phyreg lookup:284 value:0
Archreg:29 Phyreg lookup:285 value:0
Archreg:30 Phyreg lookup:286 value:0
Archreg:31 Phyreg lookup:287 value:0
Archreg:32 Phyreg lookup:288 value:0
Archreg:33 Phyreg lookup:289 value:0
Archreg:34 Phyreg lookup:290 value:0
Archreg:35 Phyreg lookup:291 value:0
Archreg:36 Phyreg lookup:292 value:0
Archreg:37 Phyreg lookup:293 value:0
Archreg:38 Phyreg lookup:294 value:0
Archreg:39 Phyreg lookup:295 value:0
Archreg:40 Phyreg lookup:296 value:0
Archreg:41 Phyreg lookup:297 value:0
Archreg:42 Phyreg lookup:298 value:0
Archreg:43 Phyreg lookup:299 value:0
Archreg:44 Phyreg lookup:300 value:0
Archreg:45 Phyreg lookup:301 value:0
Archreg:46 Phyreg lookup:302 value:0
Archreg:47 Phyreg lookup:303 value:0
Archreg:48 Phyreg lookup:304 value:0
Archreg:49 Phyreg lookup:305 value:0
Archreg:50 Phyreg lookup:306 value:0
Archreg:51 Phyreg lookup:307 value:0
Archreg:52 Phyreg lookup:308 value:0
Archreg:53 Phyreg lookup:309 value:0
Archreg:54 Phyreg lookup:310 value:0
Archreg:55 Phyreg lookup:311 value:0
Archreg:56 Phyreg lookup:312 value:0
Archreg:57 Phyreg lookup:313 value:0
Archreg:58 Phyreg lookup:314 value:0
Archreg:59 Phyreg lookup:315 value:0
Archreg:60 Phyreg lookup:316 value:0
Archreg:61 Phyreg lookup:317 value:0
Archreg:62 Phyreg lookup:318 value:0
Archreg:63 Phyreg lookup:319 value:0
Archreg:64 Phyreg lookup:320 value:0
Archreg:65 Phyreg lookup:321 value:0
Archreg:66 Phyreg lookup:322 value:0
Archreg:67 Phyreg lookup:323 value:0
Archreg:68 Phyreg lookup:324 value:0
Archreg:69 Phyreg lookup:325 value:0
Archreg:70 Phyreg lookup:326 value:0
Archreg:71 Phyreg lookup:327 value:0
Archreg:72 Phyreg lookup:328 value:0
Archreg:73 Phyreg lookup:329 value:0
Archreg:74 Phyreg lookup:330 value:0
Archreg:75 Phyreg lookup:331 value:0
Archreg:76 Phyreg lookup:332 value:0
Archreg:77 Phyreg lookup:333 value:0
Archreg:78 Phyreg lookup:334 value:0
Archreg:79 Phyreg lookup:335 value:0
Archreg:80 Phyreg lookup:336 value:0
Archreg:81 Phyreg lookup:337 value:0
Archreg:82 Phyreg lookup:338 value:0
Archreg:83 Phyreg lookup:339 value:0
Archreg:84 Phyreg lookup:340 value:0
Archreg:85 Phyreg lookup:341 value:0
Archreg:86 Phyreg lookup:342 value:0
Archreg:87 Phyreg lookup:343 value:0
Archreg:88 Phyreg lookup:344 value:0
Archreg:89 Phyreg lookup:345 value:0
Archreg:90 Phyreg lookup:346 value:0
Archreg:91 Phyreg lookup:347 value:0
Archreg:92 Phyreg lookup:348 value:0
Archreg:93 Phyreg lookup:349 value:0
Archreg:94 Phyreg lookup:350 value:0
Archreg:95 Phyreg lookup:351 value:0
Archreg:96 Phyreg lookup:352 value:0
Archreg:97 Phyreg lookup:353 value:0
Archreg:98 Phyreg lookup:354 value:0
Archreg:99 Phyreg lookup:355 value:0
Archreg:100 Phyreg lookup:356 value:0
Archreg:101 Phyreg lookup:357 value:0
Archreg:102 Phyreg lookup:358 value:0
Archreg:103 Phyreg lookup:359 value:0
Archreg:104 Phyreg lookup:360 value:0
Archreg:105 Phyreg lookup:361 value:0
Archreg:106 Phyreg lookup:362 value:0
Archreg:107 Phyreg lookup:363 value:0
Archreg:108 Phyreg lookup:364 value:0
Archreg:109 Phyreg lookup:365 value:0
Archreg:110 Phyreg lookup:366 value:0
Archreg:111 Phyreg lookup:367 value:0
Archreg:112 Phyreg lookup:368 value:0
Archreg:113 Phyreg lookup:369 value:0
Archreg:114 Phyreg lookup:370 value:0
Archreg:115 Phyreg lookup:371 value:0
Archreg:116 Phyreg lookup:372 value:0
Archreg:117 Phyreg lookup:373 value:0
Archreg:118 Phyreg lookup:374 value:0
Archreg:119 Phyreg lookup:375 value:0
Archreg:120 Phyreg lookup:376 value:0
Archreg:121 Phyreg lookup:377 value:0
Archreg:122 Phyreg lookup:378 value:0
Archreg:123 Phyreg lookup:379 value:0
Archreg:124 Phyreg lookup:380 value:0
Archreg:125 Phyreg lookup:381 value:0
Archreg:126 Phyreg lookup:382 value:0
Archreg:127 Phyreg lookup:383 value:0
Archreg:128 Phyreg lookup:384 value:0
Archreg:129 Phyreg lookup:385 value:0
Archreg:130 Phyreg lookup:386 value:0
Archreg:131 Phyreg lookup:387 value:0
Archreg:132 Phyreg lookup:388 value:0
Archreg:133 Phyreg lookup:389 value:0
Archreg:134 Phyreg lookup:390 value:0
Archreg:135 Phyreg lookup:391 value:0
Archreg:136 Phyreg lookup:392 value:0
Archreg:137 Phyreg lookup:393 value:0
Archreg:138 Phyreg lookup:394 value:0
Archreg:139 Phyreg lookup:395 value:0
Archreg:140 Phyreg lookup:396 value:0
Archreg:141 Phyreg lookup:397 value:0
Archreg:142 Phyreg lookup:398 value:0
Archreg:143 Phyreg lookup:399 value:0
Archreg:144 Phyreg lookup:400 value:0
Archreg:145 Phyreg lookup:401 value:0
Archreg:146 Phyreg lookup:402 value:0
Archreg:147 Phyreg lookup:403 value:0
Archreg:148 Phyreg lookup:404 value:0
Archreg:149 Phyreg lookup:405 value:0
Archreg:150 Phyreg lookup:406 value:0
Archreg:151 Phyreg lookup:407 value:0
Archreg:152 Phyreg lookup:408 value:0
Archreg:153 Phyreg lookup:409 value:0
Archreg:154 Phyreg lookup:410 value:0
Archreg:155 Phyreg lookup:411 value:0
Archreg:156 Phyreg lookup:412 value:0
Archreg:157 Phyreg lookup:413 value:0
Archreg:158 Phyreg lookup:414 value:0
Archreg:159 Phyreg lookup:415 value:0
*****CC REG mappings total TheISA::NumCCRegs:6
Archreg:0 Phyreg lookup:617 value:0
Archreg:1 Phyreg lookup:616 value:1
Archreg:2 Phyreg lookup:643 value:0
Archreg:3 Phyreg lookup:515 value:0
Archreg:4 Phyreg lookup:851 value:0
Archreg:5 Phyreg lookup:517 value:0
*****TRANSFORM going to print the reg mappings now!
*****INT REG mappings total TheISA::NumIntRegs:43
Archreg:0 Phyreg lookup:66 value:5180228
Archreg:1 Phyreg lookup:68 value:5185708
Archreg:2 Phyreg lookup:127 value:172280
Archreg:3 Phyreg lookup:0 value:5185716
Archreg:4 Phyreg lookup:90 value:173064
Archreg:5 Phyreg lookup:123 value:4291532
Archreg:6 Phyreg lookup:48 value:5360388
Archreg:7 Phyreg lookup:98 value:4970092
Archreg:8 Phyreg lookup:78 value:0
Archreg:9 Phyreg lookup:105 value:5185724
Archreg:10 Phyreg lookup:53 value:5536516
Archreg:11 Phyreg lookup:7 value:4
Archreg:12 Phyreg lookup:107 value:0
Archreg:13 Phyreg lookup:69 value:173048
Archreg:14 Phyreg lookup:106 value:173032
Archreg:15 Phyreg lookup:128 value:0
Archreg:16 Phyreg lookup:16 value:0
Archreg:17 Phyreg lookup:17 value:0
Archreg:18 Phyreg lookup:18 value:0
Archreg:19 Phyreg lookup:19 value:0
Archreg:20 Phyreg lookup:20 value:0
Archreg:21 Phyreg lookup:21 value:0
Archreg:22 Phyreg lookup:22 value:0
Archreg:23 Phyreg lookup:23 value:0
Archreg:24 Phyreg lookup:24 value:0
Archreg:25 Phyreg lookup:25 value:0
Archreg:26 Phyreg lookup:26 value:0
Archreg:27 Phyreg lookup:27 value:0
Archreg:28 Phyreg lookup:28 value:0
Archreg:29 Phyreg lookup:29 value:0
Archreg:30 Phyreg lookup:30 value:0
Archreg:31 Phyreg lookup:31 value:0
Archreg:32 Phyreg lookup:32 value:0
Archreg:33 Phyreg lookup:33 value:0
Archreg:34 Phyreg lookup:34 value:0
Archreg:35 Phyreg lookup:60 value:767099
Archreg:36 Phyreg lookup:74 value:5185756
Archreg:37 Phyreg lookup:37 value:0
Archreg:38 Phyreg lookup:38 value:0
Archreg:39 Phyreg lookup:39 value:0
Archreg:40 Phyreg lookup:40 value:0
Archreg:41 Phyreg lookup:41 value:0
Archreg:42 Phyreg lookup:42 value:0
*****FLOAT REG mappings total TheISA::NumFloatRegs:160
Archreg:0 Phyreg lookup:256 value:0
Archreg:1 Phyreg lookup:257 value:0
Archreg:2 Phyreg lookup:258 value:0
Archreg:3 Phyreg lookup:259 value:0
Archreg:4 Phyreg lookup:260 value:0
Archreg:5 Phyreg lookup:261 value:0
Archreg:6 Phyreg lookup:262 value:0
Archreg:7 Phyreg lookup:263 value:0
Archreg:8 Phyreg lookup:264 value:0
Archreg:9 Phyreg lookup:265 value:0
Archreg:10 Phyreg lookup:266 value:0
Archreg:11 Phyreg lookup:267 value:0
Archreg:12 Phyreg lookup:268 value:0
Archreg:13 Phyreg lookup:269 value:0
Archreg:14 Phyreg lookup:270 value:0
Archreg:15 Phyreg lookup:271 value:0
Archreg:16 Phyreg lookup:272 value:0
Archreg:17 Phyreg lookup:273 value:0
Archreg:18 Phyreg lookup:274 value:0
Archreg:19 Phyreg lookup:275 value:0
Archreg:20 Phyreg lookup:276 value:0
Archreg:21 Phyreg lookup:277 value:0
Archreg:22 Phyreg lookup:278 value:0
Archreg:23 Phyreg lookup:279 value:0
Archreg:24 Phyreg lookup:280 value:0
Archreg:25 Phyreg lookup:281 value:0
Archreg:26 Phyreg lookup:282 value:0
Archreg:27 Phyreg lookup:283 value:0
Archreg:28 Phyreg lookup:284 value:0
Archreg:29 Phyreg lookup:285 value:0
Archreg:30 Phyreg lookup:286 value:0
Archreg:31 Phyreg lookup:287 value:0
Archreg:32 Phyreg lookup:288 value:0
Archreg:33 Phyreg lookup:289 value:0
Archreg:34 Phyreg lookup:290 value:0
Archreg:35 Phyreg lookup:291 value:0
Archreg:36 Phyreg lookup:292 value:0
Archreg:37 Phyreg lookup:293 value:0
Archreg:38 Phyreg lookup:294 value:0
Archreg:39 Phyreg lookup:295 value:0
Archreg:40 Phyreg lookup:296 value:0
Archreg:41 Phyreg lookup:297 value:0
Archreg:42 Phyreg lookup:298 value:0
Archreg:43 Phyreg lookup:299 value:0
Archreg:44 Phyreg lookup:300 value:0
Archreg:45 Phyreg lookup:301 value:0
Archreg:46 Phyreg lookup:302 value:0
Archreg:47 Phyreg lookup:303 value:0
Archreg:48 Phyreg lookup:304 value:0
Archreg:49 Phyreg lookup:305 value:0
Archreg:50 Phyreg lookup:306 value:0
Archreg:51 Phyreg lookup:307 value:0
Archreg:52 Phyreg lookup:308 value:0
Archreg:53 Phyreg lookup:309 value:0
Archreg:54 Phyreg lookup:310 value:0
Archreg:55 Phyreg lookup:311 value:0
Archreg:56 Phyreg lookup:312 value:0
Archreg:57 Phyreg lookup:313 value:0
Archreg:58 Phyreg lookup:314 value:0
Archreg:59 Phyreg lookup:315 value:0
Archreg:60 Phyreg lookup:316 value:0
Archreg:61 Phyreg lookup:317 value:0
Archreg:62 Phyreg lookup:318 value:0
Archreg:63 Phyreg lookup:319 value:0
Archreg:64 Phyreg lookup:320 value:0
Archreg:65 Phyreg lookup:321 value:0
Archreg:66 Phyreg lookup:322 value:0
Archreg:67 Phyreg lookup:323 value:0
Archreg:68 Phyreg lookup:324 value:0
Archreg:69 Phyreg lookup:325 value:0
Archreg:70 Phyreg lookup:326 value:0
Archreg:71 Phyreg lookup:327 value:0
Archreg:72 Phyreg lookup:328 value:0
Archreg:73 Phyreg lookup:329 value:0
Archreg:74 Phyreg lookup:330 value:0
Archreg:75 Phyreg lookup:331 value:0
Archreg:76 Phyreg lookup:332 value:0
Archreg:77 Phyreg lookup:333 value:0
Archreg:78 Phyreg lookup:334 value:0
Archreg:79 Phyreg lookup:335 value:0
Archreg:80 Phyreg lookup:336 value:0
Archreg:81 Phyreg lookup:337 value:0
Archreg:82 Phyreg lookup:338 value:0
Archreg:83 Phyreg lookup:339 value:0
Archreg:84 Phyreg lookup:340 value:0
Archreg:85 Phyreg lookup:341 value:0
Archreg:86 Phyreg lookup:342 value:0
Archreg:87 Phyreg lookup:343 value:0
Archreg:88 Phyreg lookup:344 value:0
Archreg:89 Phyreg lookup:345 value:0
Archreg:90 Phyreg lookup:346 value:0
Archreg:91 Phyreg lookup:347 value:0
Archreg:92 Phyreg lookup:348 value:0
Archreg:93 Phyreg lookup:349 value:0
Archreg:94 Phyreg lookup:350 value:0
Archreg:95 Phyreg lookup:351 value:0
Archreg:96 Phyreg lookup:352 value:0
Archreg:97 Phyreg lookup:353 value:0
Archreg:98 Phyreg lookup:354 value:0
Archreg:99 Phyreg lookup:355 value:0
Archreg:100 Phyreg lookup:356 value:0
Archreg:101 Phyreg lookup:357 value:0
Archreg:102 Phyreg lookup:358 value:0
Archreg:103 Phyreg lookup:359 value:0
Archreg:104 Phyreg lookup:360 value:0
Archreg:105 Phyreg lookup:361 value:0
Archreg:106 Phyreg lookup:362 value:0
Archreg:107 Phyreg lookup:363 value:0
Archreg:108 Phyreg lookup:364 value:0
Archreg:109 Phyreg lookup:365 value:0
Archreg:110 Phyreg lookup:366 value:0
Archreg:111 Phyreg lookup:367 value:0
Archreg:112 Phyreg lookup:368 value:0
Archreg:113 Phyreg lookup:369 value:0
Archreg:114 Phyreg lookup:370 value:0
Archreg:115 Phyreg lookup:371 value:0
Archreg:116 Phyreg lookup:372 value:0
Archreg:117 Phyreg lookup:373 value:0
Archreg:118 Phyreg lookup:374 value:0
Archreg:119 Phyreg lookup:375 value:0
Archreg:120 Phyreg lookup:376 value:0
Archreg:121 Phyreg lookup:377 value:0
Archreg:122 Phyreg lookup:378 value:0
Archreg:123 Phyreg lookup:379 value:0
Archreg:124 Phyreg lookup:380 value:0
Archreg:125 Phyreg lookup:381 value:0
Archreg:126 Phyreg lookup:382 value:0
Archreg:127 Phyreg lookup:383 value:0
Archreg:128 Phyreg lookup:384 value:0
Archreg:129 Phyreg lookup:385 value:0
Archreg:130 Phyreg lookup:386 value:0
Archreg:131 Phyreg lookup:387 value:0
Archreg:132 Phyreg lookup:388 value:0
Archreg:133 Phyreg lookup:389 value:0
Archreg:134 Phyreg lookup:390 value:0
Archreg:135 Phyreg lookup:391 value:0
Archreg:136 Phyreg lookup:392 value:0
Archreg:137 Phyreg lookup:393 value:0
Archreg:138 Phyreg lookup:394 value:0
Archreg:139 Phyreg lookup:395 value:0
Archreg:140 Phyreg lookup:396 value:0
Archreg:141 Phyreg lookup:397 value:0
Archreg:142 Phyreg lookup:398 value:0
Archreg:143 Phyreg lookup:399 value:0
Archreg:144 Phyreg lookup:400 value:0
Archreg:145 Phyreg lookup:401 value:0
Archreg:146 Phyreg lookup:402 value:0
Archreg:147 Phyreg lookup:403 value:0
Archreg:148 Phyreg lookup:404 value:0
Archreg:149 Phyreg lookup:405 value:0
Archreg:150 Phyreg lookup:406 value:0
Archreg:151 Phyreg lookup:407 value:0
Archreg:152 Phyreg lookup:408 value:0
Archreg:153 Phyreg lookup:409 value:0
Archreg:154 Phyreg lookup:410 value:0
Archreg:155 Phyreg lookup:411 value:0
Archreg:156 Phyreg lookup:412 value:0
Archreg:157 Phyreg lookup:413 value:0
Archreg:158 Phyreg lookup:414 value:0
Archreg:159 Phyreg lookup:415 value:0
*****CC REG mappings total TheISA::NumCCRegs:6
Archreg:0 Phyreg lookup:617 value:0
Archreg:1 Phyreg lookup:616 value:1
Archreg:2 Phyreg lookup:643 value:0
Archreg:3 Phyreg lookup:515 value:0
Archreg:4 Phyreg lookup:851 value:0
Archreg:5 Phyreg lookup:517 value:0
restrict_intreg_mapping: Skipping phy:66 against regfile->numIntPhysRegs():256 with tf_regfile_scale_factor:2
restrict_intreg_mapping: Skipping phy:68 against regfile->numIntPhysRegs():256 with tf_regfile_scale_factor:2
restrict_intreg_mapping: Skipping phy:127 against regfile->numIntPhysRegs():256 with tf_regfile_scale_factor:2
restrict_intreg_mapping: Skipping phy:0 against regfile->numIntPhysRegs():256 with tf_regfile_scale_factor:2
restrict_intreg_mapping: Skipping phy:90 against regfile->numIntPhysRegs():256 with tf_regfile_scale_factor:2
restrict_intreg_mapping: Skipping phy:123 against regfile->numIntPhysRegs():256 with tf_regfile_scale_factor:2
restrict_intreg_mapping: Skipping phy:48 against regfile->numIntPhysRegs():256 with tf_regfile_scale_factor:2
restrict_intreg_mapping: Skipping phy:98 against regfile->numIntPhysRegs():256 with tf_regfile_scale_factor:2
restrict_intreg_mapping: Skipping phy:78 against regfile->numIntPhysRegs():256 with tf_regfile_scale_factor:2
restrict_intreg_mapping: Skipping phy:105 against regfile->numIntPhysRegs():256 with tf_regfile_scale_factor:2
restrict_intreg_mapping: Skipping phy:53 against regfile->numIntPhysRegs():256 with tf_regfile_scale_factor:2
restrict_intreg_mapping: Skipping phy:7 against regfile->numIntPhysRegs():256 with tf_regfile_scale_factor:2
restrict_intreg_mapping: Skipping phy:107 against regfile->numIntPhysRegs():256 with tf_regfile_scale_factor:2
restrict_intreg_mapping: Skipping phy:69 against regfile->numIntPhysRegs():256 with tf_regfile_scale_factor:2
restrict_intreg_mapping: Skipping phy:106 against regfile->numIntPhysRegs():256 with tf_regfile_scale_factor:2
restrict_intreg_mapping: Skipping phy:128 against regfile->numIntPhysRegs():256 with tf_regfile_scale_factor:2
restrict_intreg_mapping: Skipping phy:16 against regfile->numIntPhysRegs():256 with tf_regfile_scale_factor:2
restrict_intreg_mapping: Skipping phy:17 against regfile->numIntPhysRegs():256 with tf_regfile_scale_factor:2
restrict_intreg_mapping: Skipping phy:18 against regfile->numIntPhysRegs():256 with tf_regfile_scale_factor:2
restrict_intreg_mapping: Skipping phy:19 against regfile->numIntPhysRegs():256 with tf_regfile_scale_factor:2
restrict_intreg_mapping: Skipping phy:20 against regfile->numIntPhysRegs():256 with tf_regfile_scale_factor:2
restrict_intreg_mapping: Skipping phy:21 against regfile->numIntPhysRegs():256 with tf_regfile_scale_factor:2
restrict_intreg_mapping: Skipping phy:22 against regfile->numIntPhysRegs():256 with tf_regfile_scale_factor:2
restrict_intreg_mapping: Skipping phy:23 against regfile->numIntPhysRegs():256 with tf_regfile_scale_factor:2
restrict_intreg_mapping: Skipping phy:24 against regfile->numIntPhysRegs():256 with tf_regfile_scale_factor:2
restrict_intreg_mapping: Skipping phy:25 against regfile->numIntPhysRegs():256 with tf_regfile_scale_factor:2
restrict_intreg_mapping: Skipping phy:26 against regfile->numIntPhysRegs():256 with tf_regfile_scale_factor:2
restrict_intreg_mapping: Skipping phy:27 against regfile->numIntPhysRegs():256 with tf_regfile_scale_factor:2
restrict_intreg_mapping: Skipping phy:28 against regfile->numIntPhysRegs():256 with tf_regfile_scale_factor:2
restrict_intreg_mapping: Skipping phy:29 against regfile->numIntPhysRegs():256 with tf_regfile_scale_factor:2
restrict_intreg_mapping: Skipping phy:30 against regfile->numIntPhysRegs():256 with tf_regfile_scale_factor:2
restrict_intreg_mapping: Skipping phy:31 against regfile->numIntPhysRegs():256 with tf_regfile_scale_factor:2
restrict_intreg_mapping: Skipping phy:32 against regfile->numIntPhysRegs():256 with tf_regfile_scale_factor:2
restrict_intreg_mapping: Skipping phy:33 against regfile->numIntPhysRegs():256 with tf_regfile_scale_factor:2
restrict_intreg_mapping: Skipping phy:34 against regfile->numIntPhysRegs():256 with tf_regfile_scale_factor:2
restrict_intreg_mapping: Skipping phy:60 against regfile->numIntPhysRegs():256 with tf_regfile_scale_factor:2
restrict_intreg_mapping: Skipping phy:74 against regfile->numIntPhysRegs():256 with tf_regfile_scale_factor:2
restrict_intreg_mapping: Skipping phy:37 against regfile->numIntPhysRegs():256 with tf_regfile_scale_factor:2
restrict_intreg_mapping: Skipping phy:38 against regfile->numIntPhysRegs():256 with tf_regfile_scale_factor:2
restrict_intreg_mapping: Skipping phy:39 against regfile->numIntPhysRegs():256 with tf_regfile_scale_factor:2
restrict_intreg_mapping: Skipping phy:40 against regfile->numIntPhysRegs():256 with tf_regfile_scale_factor:2
restrict_intreg_mapping: Skipping phy:41 against regfile->numIntPhysRegs():256 with tf_regfile_scale_factor:2
restrict_intreg_mapping: Skipping phy:42 against regfile->numIntPhysRegs():256 with tf_regfile_scale_factor:2
*****TRANSFORM going to print the reg mappings now!
*****INT REG mappings total TheISA::NumIntRegs:43
Archreg:0 Phyreg lookup:66 value:5180228
Archreg:1 Phyreg lookup:68 value:5185708
Archreg:2 Phyreg lookup:127 value:172280
Archreg:3 Phyreg lookup:0 value:5185716
Archreg:4 Phyreg lookup:90 value:173064
Archreg:5 Phyreg lookup:123 value:4291532
Archreg:6 Phyreg lookup:48 value:5360388
Archreg:7 Phyreg lookup:98 value:4970092
Archreg:8 Phyreg lookup:78 value:0
Archreg:9 Phyreg lookup:105 value:5185724
Archreg:10 Phyreg lookup:53 value:5536516
Archreg:11 Phyreg lookup:7 value:4
Archreg:12 Phyreg lookup:107 value:0
Archreg:13 Phyreg lookup:69 value:173048
Archreg:14 Phyreg lookup:106 value:173032
Archreg:15 Phyreg lookup:128 value:0
Archreg:16 Phyreg lookup:16 value:0
Archreg:17 Phyreg lookup:17 value:0
Archreg:18 Phyreg lookup:18 value:0
Archreg:19 Phyreg lookup:19 value:0
Archreg:20 Phyreg lookup:20 value:0
Archreg:21 Phyreg lookup:21 value:0
Archreg:22 Phyreg lookup:22 value:0
Archreg:23 Phyreg lookup:23 value:0
Archreg:24 Phyreg lookup:24 value:0
Archreg:25 Phyreg lookup:25 value:0
Archreg:26 Phyreg lookup:26 value:0
Archreg:27 Phyreg lookup:27 value:0
Archreg:28 Phyreg lookup:28 value:0
Archreg:29 Phyreg lookup:29 value:0
Archreg:30 Phyreg lookup:30 value:0
Archreg:31 Phyreg lookup:31 value:0
Archreg:32 Phyreg lookup:32 value:0
Archreg:33 Phyreg lookup:33 value:0
Archreg:34 Phyreg lookup:34 value:0
Archreg:35 Phyreg lookup:60 value:767099
Archreg:36 Phyreg lookup:74 value:5185756
Archreg:37 Phyreg lookup:37 value:0
Archreg:38 Phyreg lookup:38 value:0
Archreg:39 Phyreg lookup:39 value:0
Archreg:40 Phyreg lookup:40 value:0
Archreg:41 Phyreg lookup:41 value:0
Archreg:42 Phyreg lookup:42 value:0
*****FLOAT REG mappings total TheISA::NumFloatRegs:160
Archreg:0 Phyreg lookup:256 value:0
Archreg:1 Phyreg lookup:257 value:0
Archreg:2 Phyreg lookup:258 value:0
Archreg:3 Phyreg lookup:259 value:0
Archreg:4 Phyreg lookup:260 value:0
Archreg:5 Phyreg lookup:261 value:0
Archreg:6 Phyreg lookup:262 value:0
Archreg:7 Phyreg lookup:263 value:0
Archreg:8 Phyreg lookup:264 value:0
Archreg:9 Phyreg lookup:265 value:0
Archreg:10 Phyreg lookup:266 value:0
Archreg:11 Phyreg lookup:267 value:0
Archreg:12 Phyreg lookup:268 value:0
Archreg:13 Phyreg lookup:269 value:0
Archreg:14 Phyreg lookup:270 value:0
Archreg:15 Phyreg lookup:271 value:0
Archreg:16 Phyreg lookup:272 value:0
Archreg:17 Phyreg lookup:273 value:0
Archreg:18 Phyreg lookup:274 value:0
Archreg:19 Phyreg lookup:275 value:0
Archreg:20 Phyreg lookup:276 value:0
Archreg:21 Phyreg lookup:277 value:0
Archreg:22 Phyreg lookup:278 value:0
Archreg:23 Phyreg lookup:279 value:0
Archreg:24 Phyreg lookup:280 value:0
Archreg:25 Phyreg lookup:281 value:0
Archreg:26 Phyreg lookup:282 value:0
Archreg:27 Phyreg lookup:283 value:0
Archreg:28 Phyreg lookup:284 value:0
Archreg:29 Phyreg lookup:285 value:0
Archreg:30 Phyreg lookup:286 value:0
Archreg:31 Phyreg lookup:287 value:0
Archreg:32 Phyreg lookup:288 value:0
Archreg:33 Phyreg lookup:289 value:0
Archreg:34 Phyreg lookup:290 value:0
Archreg:35 Phyreg lookup:291 value:0
Archreg:36 Phyreg lookup:292 value:0
Archreg:37 Phyreg lookup:293 value:0
Archreg:38 Phyreg lookup:294 value:0
Archreg:39 Phyreg lookup:295 value:0
Archreg:40 Phyreg lookup:296 value:0
Archreg:41 Phyreg lookup:297 value:0
Archreg:42 Phyreg lookup:298 value:0
Archreg:43 Phyreg lookup:299 value:0
Archreg:44 Phyreg lookup:300 value:0
Archreg:45 Phyreg lookup:301 value:0
Archreg:46 Phyreg lookup:302 value:0
Archreg:47 Phyreg lookup:303 value:0
Archreg:48 Phyreg lookup:304 value:0
Archreg:49 Phyreg lookup:305 value:0
Archreg:50 Phyreg lookup:306 value:0
Archreg:51 Phyreg lookup:307 value:0
Archreg:52 Phyreg lookup:308 value:0
Archreg:53 Phyreg lookup:309 value:0
Archreg:54 Phyreg lookup:310 value:0
Archreg:55 Phyreg lookup:311 value:0
Archreg:56 Phyreg lookup:312 value:0
Archreg:57 Phyreg lookup:313 value:0
Archreg:58 Phyreg lookup:314 value:0
Archreg:59 Phyreg lookup:315 value:0
Archreg:60 Phyreg lookup:316 value:0
Archreg:61 Phyreg lookup:317 value:0
Archreg:62 Phyreg lookup:318 value:0
Archreg:63 Phyreg lookup:319 value:0
Archreg:64 Phyreg lookup:320 value:0
Archreg:65 Phyreg lookup:321 value:0
Archreg:66 Phyreg lookup:322 value:0
Archreg:67 Phyreg lookup:323 value:0
Archreg:68 Phyreg lookup:324 value:0
Archreg:69 Phyreg lookup:325 value:0
Archreg:70 Phyreg lookup:326 value:0
Archreg:71 Phyreg lookup:327 value:0
Archreg:72 Phyreg lookup:328 value:0
Archreg:73 Phyreg lookup:329 value:0
Archreg:74 Phyreg lookup:330 value:0
Archreg:75 Phyreg lookup:331 value:0
Archreg:76 Phyreg lookup:332 value:0
Archreg:77 Phyreg lookup:333 value:0
Archreg:78 Phyreg lookup:334 value:0
Archreg:79 Phyreg lookup:335 value:0
Archreg:80 Phyreg lookup:336 value:0
Archreg:81 Phyreg lookup:337 value:0
Archreg:82 Phyreg lookup:338 value:0
Archreg:83 Phyreg lookup:339 value:0
Archreg:84 Phyreg lookup:340 value:0
Archreg:85 Phyreg lookup:341 value:0
Archreg:86 Phyreg lookup:342 value:0
Archreg:87 Phyreg lookup:343 value:0
Archreg:88 Phyreg lookup:344 value:0
Archreg:89 Phyreg lookup:345 value:0
Archreg:90 Phyreg lookup:346 value:0
Archreg:91 Phyreg lookup:347 value:0
Archreg:92 Phyreg lookup:348 value:0
Archreg:93 Phyreg lookup:349 value:0
Archreg:94 Phyreg lookup:350 value:0
Archreg:95 Phyreg lookup:351 value:0
Archreg:96 Phyreg lookup:352 value:0
Archreg:97 Phyreg lookup:353 value:0
Archreg:98 Phyreg lookup:354 value:0
Archreg:99 Phyreg lookup:355 value:0
Archreg:100 Phyreg lookup:356 value:0
Archreg:101 Phyreg lookup:357 value:0
Archreg:102 Phyreg lookup:358 value:0
Archreg:103 Phyreg lookup:359 value:0
Archreg:104 Phyreg lookup:360 value:0
Archreg:105 Phyreg lookup:361 value:0
Archreg:106 Phyreg lookup:362 value:0
Archreg:107 Phyreg lookup:363 value:0
Archreg:108 Phyreg lookup:364 value:0
Archreg:109 Phyreg lookup:365 value:0
Archreg:110 Phyreg lookup:366 value:0
Archreg:111 Phyreg lookup:367 value:0
Archreg:112 Phyreg lookup:368 value:0
Archreg:113 Phyreg lookup:369 value:0
Archreg:114 Phyreg lookup:370 value:0
Archreg:115 Phyreg lookup:371 value:0
Archreg:116 Phyreg lookup:372 value:0
Archreg:117 Phyreg lookup:373 value:0
Archreg:118 Phyreg lookup:374 value:0
Archreg:119 Phyreg lookup:375 value:0
Archreg:120 Phyreg lookup:376 value:0
Archreg:121 Phyreg lookup:377 value:0
Archreg:122 Phyreg lookup:378 value:0
Archreg:123 Phyreg lookup:379 value:0
Archreg:124 Phyreg lookup:380 value:0
Archreg:125 Phyreg lookup:381 value:0
Archreg:126 Phyreg lookup:382 value:0
Archreg:127 Phyreg lookup:383 value:0
Archreg:128 Phyreg lookup:384 value:0
Archreg:129 Phyreg lookup:385 value:0
Archreg:130 Phyreg lookup:386 value:0
Archreg:131 Phyreg lookup:387 value:0
Archreg:132 Phyreg lookup:388 value:0
Archreg:133 Phyreg lookup:389 value:0
Archreg:134 Phyreg lookup:390 value:0
Archreg:135 Phyreg lookup:391 value:0
Archreg:136 Phyreg lookup:392 value:0
Archreg:137 Phyreg lookup:393 value:0
Archreg:138 Phyreg lookup:394 value:0
Archreg:139 Phyreg lookup:395 value:0
Archreg:140 Phyreg lookup:396 value:0
Archreg:141 Phyreg lookup:397 value:0
Archreg:142 Phyreg lookup:398 value:0
Archreg:143 Phyreg lookup:399 value:0
Archreg:144 Phyreg lookup:400 value:0
Archreg:145 Phyreg lookup:401 value:0
Archreg:146 Phyreg lookup:402 value:0
Archreg:147 Phyreg lookup:403 value:0
Archreg:148 Phyreg lookup:404 value:0
Archreg:149 Phyreg lookup:405 value:0
Archreg:150 Phyreg lookup:406 value:0
Archreg:151 Phyreg lookup:407 value:0
Archreg:152 Phyreg lookup:408 value:0
Archreg:153 Phyreg lookup:409 value:0
Archreg:154 Phyreg lookup:410 value:0
Archreg:155 Phyreg lookup:411 value:0
Archreg:156 Phyreg lookup:412 value:0
Archreg:157 Phyreg lookup:413 value:0
Archreg:158 Phyreg lookup:414 value:0
Archreg:159 Phyreg lookup:415 value:0
*****CC REG mappings total TheISA::NumCCRegs:6
Archreg:0 Phyreg lookup:617 value:0
Archreg:1 Phyreg lookup:616 value:1
Archreg:2 Phyreg lookup:643 value:0
Archreg:3 Phyreg lookup:515 value:0
Archreg:4 Phyreg lookup:851 value:0
Archreg:5 Phyreg lookup:517 value:0
*****TRANSFORM going to print the reg mappings now!
*****INT REG mappings total TheISA::NumIntRegs:43
Archreg:0 Phyreg lookup:66 value:5180228
Archreg:1 Phyreg lookup:68 value:5185708
Archreg:2 Phyreg lookup:127 value:172280
Archreg:3 Phyreg lookup:0 value:5185716
Archreg:4 Phyreg lookup:90 value:173064
Archreg:5 Phyreg lookup:123 value:4291532
Archreg:6 Phyreg lookup:48 value:5360388
Archreg:7 Phyreg lookup:98 value:4970092
Archreg:8 Phyreg lookup:78 value:0
Archreg:9 Phyreg lookup:105 value:5185724
Archreg:10 Phyreg lookup:53 value:5536516
Archreg:11 Phyreg lookup:7 value:4
Archreg:12 Phyreg lookup:107 value:0
Archreg:13 Phyreg lookup:69 value:173048
Archreg:14 Phyreg lookup:106 value:173032
Archreg:15 Phyreg lookup:128 value:0
Archreg:16 Phyreg lookup:16 value:0
Archreg:17 Phyreg lookup:17 value:0
Archreg:18 Phyreg lookup:18 value:0
Archreg:19 Phyreg lookup:19 value:0
Archreg:20 Phyreg lookup:20 value:0
Archreg:21 Phyreg lookup:21 value:0
Archreg:22 Phyreg lookup:22 value:0
Archreg:23 Phyreg lookup:23 value:0
Archreg:24 Phyreg lookup:24 value:0
Archreg:25 Phyreg lookup:25 value:0
Archreg:26 Phyreg lookup:26 value:0
Archreg:27 Phyreg lookup:27 value:0
Archreg:28 Phyreg lookup:28 value:0
Archreg:29 Phyreg lookup:29 value:0
Archreg:30 Phyreg lookup:30 value:0
Archreg:31 Phyreg lookup:31 value:0
Archreg:32 Phyreg lookup:32 value:0
Archreg:33 Phyreg lookup:33 value:0
Archreg:34 Phyreg lookup:34 value:0
Archreg:35 Phyreg lookup:60 value:767099
Archreg:36 Phyreg lookup:74 value:5185756
Archreg:37 Phyreg lookup:37 value:0
Archreg:38 Phyreg lookup:38 value:0
Archreg:39 Phyreg lookup:39 value:0
Archreg:40 Phyreg lookup:40 value:0
Archreg:41 Phyreg lookup:41 value:0
Archreg:42 Phyreg lookup:42 value:0
*****FLOAT REG mappings total TheISA::NumFloatRegs:160
Archreg:0 Phyreg lookup:256 value:0
Archreg:1 Phyreg lookup:257 value:0
Archreg:2 Phyreg lookup:258 value:0
Archreg:3 Phyreg lookup:259 value:0
Archreg:4 Phyreg lookup:260 value:0
Archreg:5 Phyreg lookup:261 value:0
Archreg:6 Phyreg lookup:262 value:0
Archreg:7 Phyreg lookup:263 value:0
Archreg:8 Phyreg lookup:264 value:0
Archreg:9 Phyreg lookup:265 value:0
Archreg:10 Phyreg lookup:266 value:0
Archreg:11 Phyreg lookup:267 value:0
Archreg:12 Phyreg lookup:268 value:0
Archreg:13 Phyreg lookup:269 value:0
Archreg:14 Phyreg lookup:270 value:0
Archreg:15 Phyreg lookup:271 value:0
Archreg:16 Phyreg lookup:272 value:0
Archreg:17 Phyreg lookup:273 value:0
Archreg:18 Phyreg lookup:274 value:0
Archreg:19 Phyreg lookup:275 value:0
Archreg:20 Phyreg lookup:276 value:0
Archreg:21 Phyreg lookup:277 value:0
Archreg:22 Phyreg lookup:278 value:0
Archreg:23 Phyreg lookup:279 value:0
Archreg:24 Phyreg lookup:280 value:0
Archreg:25 Phyreg lookup:281 value:0
Archreg:26 Phyreg lookup:282 value:0
Archreg:27 Phyreg lookup:283 value:0
Archreg:28 Phyreg lookup:284 value:0
Archreg:29 Phyreg lookup:285 value:0
Archreg:30 Phyreg lookup:286 value:0
Archreg:31 Phyreg lookup:287 value:0
Archreg:32 Phyreg lookup:288 value:0
Archreg:33 Phyreg lookup:289 value:0
Archreg:34 Phyreg lookup:290 value:0
Archreg:35 Phyreg lookup:291 value:0
Archreg:36 Phyreg lookup:292 value:0
Archreg:37 Phyreg lookup:293 value:0
Archreg:38 Phyreg lookup:294 value:0
Archreg:39 Phyreg lookup:295 value:0
Archreg:40 Phyreg lookup:296 value:0
Archreg:41 Phyreg lookup:297 value:0
Archreg:42 Phyreg lookup:298 value:0
Archreg:43 Phyreg lookup:299 value:0
Archreg:44 Phyreg lookup:300 value:0
Archreg:45 Phyreg lookup:301 value:0
Archreg:46 Phyreg lookup:302 value:0
Archreg:47 Phyreg lookup:303 value:0
Archreg:48 Phyreg lookup:304 value:0
Archreg:49 Phyreg lookup:305 value:0
Archreg:50 Phyreg lookup:306 value:0
Archreg:51 Phyreg lookup:307 value:0
Archreg:52 Phyreg lookup:308 value:0
Archreg:53 Phyreg lookup:309 value:0
Archreg:54 Phyreg lookup:310 value:0
Archreg:55 Phyreg lookup:311 value:0
Archreg:56 Phyreg lookup:312 value:0
Archreg:57 Phyreg lookup:313 value:0
Archreg:58 Phyreg lookup:314 value:0
Archreg:59 Phyreg lookup:315 value:0
Archreg:60 Phyreg lookup:316 value:0
Archreg:61 Phyreg lookup:317 value:0
Archreg:62 Phyreg lookup:318 value:0
Archreg:63 Phyreg lookup:319 value:0
Archreg:64 Phyreg lookup:320 value:0
Archreg:65 Phyreg lookup:321 value:0
Archreg:66 Phyreg lookup:322 value:0
Archreg:67 Phyreg lookup:323 value:0
Archreg:68 Phyreg lookup:324 value:0
Archreg:69 Phyreg lookup:325 value:0
Archreg:70 Phyreg lookup:326 value:0
Archreg:71 Phyreg lookup:327 value:0
Archreg:72 Phyreg lookup:328 value:0
Archreg:73 Phyreg lookup:329 value:0
Archreg:74 Phyreg lookup:330 value:0
Archreg:75 Phyreg lookup:331 value:0
Archreg:76 Phyreg lookup:332 value:0
Archreg:77 Phyreg lookup:333 value:0
Archreg:78 Phyreg lookup:334 value:0
Archreg:79 Phyreg lookup:335 value:0
Archreg:80 Phyreg lookup:336 value:0
Archreg:81 Phyreg lookup:337 value:0
Archreg:82 Phyreg lookup:338 value:0
Archreg:83 Phyreg lookup:339 value:0
Archreg:84 Phyreg lookup:340 value:0
Archreg:85 Phyreg lookup:341 value:0
Archreg:86 Phyreg lookup:342 value:0
Archreg:87 Phyreg lookup:343 value:0
Archreg:88 Phyreg lookup:344 value:0
Archreg:89 Phyreg lookup:345 value:0
Archreg:90 Phyreg lookup:346 value:0
Archreg:91 Phyreg lookup:347 value:0
Archreg:92 Phyreg lookup:348 value:0
Archreg:93 Phyreg lookup:349 value:0
Archreg:94 Phyreg lookup:350 value:0
Archreg:95 Phyreg lookup:351 value:0
Archreg:96 Phyreg lookup:352 value:0
Archreg:97 Phyreg lookup:353 value:0
Archreg:98 Phyreg lookup:354 value:0
Archreg:99 Phyreg lookup:355 value:0
Archreg:100 Phyreg lookup:356 value:0
Archreg:101 Phyreg lookup:357 value:0
Archreg:102 Phyreg lookup:358 value:0
Archreg:103 Phyreg lookup:359 value:0
Archreg:104 Phyreg lookup:360 value:0
Archreg:105 Phyreg lookup:361 value:0
Archreg:106 Phyreg lookup:362 value:0
Archreg:107 Phyreg lookup:363 value:0
Archreg:108 Phyreg lookup:364 value:0
Archreg:109 Phyreg lookup:365 value:0
Archreg:110 Phyreg lookup:366 value:0
Archreg:111 Phyreg lookup:367 value:0
Archreg:112 Phyreg lookup:368 value:0
Archreg:113 Phyreg lookup:369 value:0
Archreg:114 Phyreg lookup:370 value:0
Archreg:115 Phyreg lookup:371 value:0
Archreg:116 Phyreg lookup:372 value:0
Archreg:117 Phyreg lookup:373 value:0
Archreg:118 Phyreg lookup:374 value:0
Archreg:119 Phyreg lookup:375 value:0
Archreg:120 Phyreg lookup:376 value:0
Archreg:121 Phyreg lookup:377 value:0
Archreg:122 Phyreg lookup:378 value:0
Archreg:123 Phyreg lookup:379 value:0
Archreg:124 Phyreg lookup:380 value:0
Archreg:125 Phyreg lookup:381 value:0
Archreg:126 Phyreg lookup:382 value:0
Archreg:127 Phyreg lookup:383 value:0
Archreg:128 Phyreg lookup:384 value:0
Archreg:129 Phyreg lookup:385 value:0
Archreg:130 Phyreg lookup:386 value:0
Archreg:131 Phyreg lookup:387 value:0
Archreg:132 Phyreg lookup:388 value:0
Archreg:133 Phyreg lookup:389 value:0
Archreg:134 Phyreg lookup:390 value:0
Archreg:135 Phyreg lookup:391 value:0
Archreg:136 Phyreg lookup:392 value:0
Archreg:137 Phyreg lookup:393 value:0
Archreg:138 Phyreg lookup:394 value:0
Archreg:139 Phyreg lookup:395 value:0
Archreg:140 Phyreg lookup:396 value:0
Archreg:141 Phyreg lookup:397 value:0
Archreg:142 Phyreg lookup:398 value:0
Archreg:143 Phyreg lookup:399 value:0
Archreg:144 Phyreg lookup:400 value:0
Archreg:145 Phyreg lookup:401 value:0
Archreg:146 Phyreg lookup:402 value:0
Archreg:147 Phyreg lookup:403 value:0
Archreg:148 Phyreg lookup:404 value:0
Archreg:149 Phyreg lookup:405 value:0
Archreg:150 Phyreg lookup:406 value:0
Archreg:151 Phyreg lookup:407 value:0
Archreg:152 Phyreg lookup:408 value:0
Archreg:153 Phyreg lookup:409 value:0
Archreg:154 Phyreg lookup:410 value:0
Archreg:155 Phyreg lookup:411 value:0
Archreg:156 Phyreg lookup:412 value:0
Archreg:157 Phyreg lookup:413 value:0
Archreg:158 Phyreg lookup:414 value:0
Archreg:159 Phyreg lookup:415 value:0
*****CC REG mappings total TheISA::NumCCRegs:6
Archreg:0 Phyreg lookup:617 value:0
Archreg:1 Phyreg lookup:616 value:1
Archreg:2 Phyreg lookup:643 value:0
Archreg:3 Phyreg lookup:515 value:0
Archreg:4 Phyreg lookup:851 value:0
Archreg:5 Phyreg lookup:517 value:0
restrict_intreg_mapping: Skipping phy:66 against regfile->numIntPhysRegs():256 with tf_regfile_scale_factor:2
restrict_intreg_mapping: Skipping phy:68 against regfile->numIntPhysRegs():256 with tf_regfile_scale_factor:2
restrict_intreg_mapping: Skipping phy:127 against regfile->numIntPhysRegs():256 with tf_regfile_scale_factor:2
restrict_intreg_mapping: Skipping phy:0 against regfile->numIntPhysRegs():256 with tf_regfile_scale_factor:2
restrict_intreg_mapping: Skipping phy:90 against regfile->numIntPhysRegs():256 with tf_regfile_scale_factor:2
restrict_intreg_mapping: Skipping phy:123 against regfile->numIntPhysRegs():256 with tf_regfile_scale_factor:2
restrict_intreg_mapping: Skipping phy:48 against regfile->numIntPhysRegs():256 with tf_regfile_scale_factor:2
restrict_intreg_mapping: Skipping phy:98 against regfile->numIntPhysRegs():256 with tf_regfile_scale_factor:2
restrict_intreg_mapping: Skipping phy:78 against regfile->numIntPhysRegs():256 with tf_regfile_scale_factor:2
restrict_intreg_mapping: Skipping phy:105 against regfile->numIntPhysRegs():256 with tf_regfile_scale_factor:2
restrict_intreg_mapping: Skipping phy:53 against regfile->numIntPhysRegs():256 with tf_regfile_scale_factor:2
restrict_intreg_mapping: Skipping phy:7 against regfile->numIntPhysRegs():256 with tf_regfile_scale_factor:2
restrict_intreg_mapping: Skipping phy:107 against regfile->numIntPhysRegs():256 with tf_regfile_scale_factor:2
restrict_intreg_mapping: Skipping phy:69 against regfile->numIntPhysRegs():256 with tf_regfile_scale_factor:2
restrict_intreg_mapping: Skipping phy:106 against regfile->numIntPhysRegs():256 with tf_regfile_scale_factor:2
restrict_intreg_mapping: Skipping phy:128 against regfile->numIntPhysRegs():256 with tf_regfile_scale_factor:2
restrict_intreg_mapping: Skipping phy:16 against regfile->numIntPhysRegs():256 with tf_regfile_scale_factor:2
restrict_intreg_mapping: Skipping phy:17 against regfile->numIntPhysRegs():256 with tf_regfile_scale_factor:2
restrict_intreg_mapping: Skipping phy:18 against regfile->numIntPhysRegs():256 with tf_regfile_scale_factor:2
restrict_intreg_mapping: Skipping phy:19 against regfile->numIntPhysRegs():256 with tf_regfile_scale_factor:2
restrict_intreg_mapping: Skipping phy:20 against regfile->numIntPhysRegs():256 with tf_regfile_scale_factor:2
restrict_intreg_mapping: Skipping phy:21 against regfile->numIntPhysRegs():256 with tf_regfile_scale_factor:2
restrict_intreg_mapping: Skipping phy:22 against regfile->numIntPhysRegs():256 with tf_regfile_scale_factor:2
restrict_intreg_mapping: Skipping phy:23 against regfile->numIntPhysRegs():256 with tf_regfile_scale_factor:2
restrict_intreg_mapping: Skipping phy:24 against regfile->numIntPhysRegs():256 with tf_regfile_scale_factor:2
restrict_intreg_mapping: Skipping phy:25 against regfile->numIntPhysRegs():256 with tf_regfile_scale_factor:2
restrict_intreg_mapping: Skipping phy:26 against regfile->numIntPhysRegs():256 with tf_regfile_scale_factor:2
restrict_intreg_mapping: Skipping phy:27 against regfile->numIntPhysRegs():256 with tf_regfile_scale_factor:2
restrict_intreg_mapping: Skipping phy:28 against regfile->numIntPhysRegs():256 with tf_regfile_scale_factor:2
restrict_intreg_mapping: Skipping phy:29 against regfile->numIntPhysRegs():256 with tf_regfile_scale_factor:2
restrict_intreg_mapping: Skipping phy:30 against regfile->numIntPhysRegs():256 with tf_regfile_scale_factor:2
restrict_intreg_mapping: Skipping phy:31 against regfile->numIntPhysRegs():256 with tf_regfile_scale_factor:2
restrict_intreg_mapping: Skipping phy:32 against regfile->numIntPhysRegs():256 with tf_regfile_scale_factor:2
restrict_intreg_mapping: Skipping phy:33 against regfile->numIntPhysRegs():256 with tf_regfile_scale_factor:2
restrict_intreg_mapping: Skipping phy:34 against regfile->numIntPhysRegs():256 with tf_regfile_scale_factor:2
restrict_intreg_mapping: Skipping phy:60 against regfile->numIntPhysRegs():256 with tf_regfile_scale_factor:2
restrict_intreg_mapping: Skipping phy:74 against regfile->numIntPhysRegs():256 with tf_regfile_scale_factor:2
restrict_intreg_mapping: Skipping phy:37 against regfile->numIntPhysRegs():256 with tf_regfile_scale_factor:2
restrict_intreg_mapping: Skipping phy:38 against regfile->numIntPhysRegs():256 with tf_regfile_scale_factor:2
restrict_intreg_mapping: Skipping phy:39 against regfile->numIntPhysRegs():256 with tf_regfile_scale_factor:2
restrict_intreg_mapping: Skipping phy:40 against regfile->numIntPhysRegs():256 with tf_regfile_scale_factor:2
restrict_intreg_mapping: Skipping phy:41 against regfile->numIntPhysRegs():256 with tf_regfile_scale_factor:2
restrict_intreg_mapping: Skipping phy:42 against regfile->numIntPhysRegs():256 with tf_regfile_scale_factor:2
*****TRANSFORM going to print the reg mappings now!
*****INT REG mappings total TheISA::NumIntRegs:43
Archreg:0 Phyreg lookup:66 value:5180228
Archreg:1 Phyreg lookup:68 value:5185708
Archreg:2 Phyreg lookup:127 value:172280
Archreg:3 Phyreg lookup:0 value:5185716
Archreg:4 Phyreg lookup:90 value:173064
Archreg:5 Phyreg lookup:123 value:4291532
Archreg:6 Phyreg lookup:48 value:5360388
Archreg:7 Phyreg lookup:98 value:4970092
Archreg:8 Phyreg lookup:78 value:0
Archreg:9 Phyreg lookup:105 value:5185724
Archreg:10 Phyreg lookup:53 value:5536516
Archreg:11 Phyreg lookup:7 value:4
Archreg:12 Phyreg lookup:107 value:0
Archreg:13 Phyreg lookup:69 value:173048
Archreg:14 Phyreg lookup:106 value:173032
Archreg:15 Phyreg lookup:128 value:0
Archreg:16 Phyreg lookup:16 value:0
Archreg:17 Phyreg lookup:17 value:0
Archreg:18 Phyreg lookup:18 value:0
Archreg:19 Phyreg lookup:19 value:0
Archreg:20 Phyreg lookup:20 value:0
Archreg:21 Phyreg lookup:21 value:0
Archreg:22 Phyreg lookup:22 value:0
Archreg:23 Phyreg lookup:23 value:0
Archreg:24 Phyreg lookup:24 value:0
Archreg:25 Phyreg lookup:25 value:0
Archreg:26 Phyreg lookup:26 value:0
Archreg:27 Phyreg lookup:27 value:0
Archreg:28 Phyreg lookup:28 value:0
Archreg:29 Phyreg lookup:29 value:0
Archreg:30 Phyreg lookup:30 value:0
Archreg:31 Phyreg lookup:31 value:0
Archreg:32 Phyreg lookup:32 value:0
Archreg:33 Phyreg lookup:33 value:0
Archreg:34 Phyreg lookup:34 value:0
Archreg:35 Phyreg lookup:60 value:767099
Archreg:36 Phyreg lookup:74 value:5185756
Archreg:37 Phyreg lookup:37 value:0
Archreg:38 Phyreg lookup:38 value:0
Archreg:39 Phyreg lookup:39 value:0
Archreg:40 Phyreg lookup:40 value:0
Archreg:41 Phyreg lookup:41 value:0
Archreg:42 Phyreg lookup:42 value:0
*****FLOAT REG mappings total TheISA::NumFloatRegs:160
Archreg:0 Phyreg lookup:256 value:0
Archreg:1 Phyreg lookup:257 value:0
Archreg:2 Phyreg lookup:258 value:0
Archreg:3 Phyreg lookup:259 value:0
Archreg:4 Phyreg lookup:260 value:0
Archreg:5 Phyreg lookup:261 value:0
Archreg:6 Phyreg lookup:262 value:0
Archreg:7 Phyreg lookup:263 value:0
Archreg:8 Phyreg lookup:264 value:0
Archreg:9 Phyreg lookup:265 value:0
Archreg:10 Phyreg lookup:266 value:0
Archreg:11 Phyreg lookup:267 value:0
Archreg:12 Phyreg lookup:268 value:0
Archreg:13 Phyreg lookup:269 value:0
Archreg:14 Phyreg lookup:270 value:0
Archreg:15 Phyreg lookup:271 value:0
Archreg:16 Phyreg lookup:272 value:0
Archreg:17 Phyreg lookup:273 value:0
Archreg:18 Phyreg lookup:274 value:0
Archreg:19 Phyreg lookup:275 value:0
Archreg:20 Phyreg lookup:276 value:0
Archreg:21 Phyreg lookup:277 value:0
Archreg:22 Phyreg lookup:278 value:0
Archreg:23 Phyreg lookup:279 value:0
Archreg:24 Phyreg lookup:280 value:0
Archreg:25 Phyreg lookup:281 value:0
Archreg:26 Phyreg lookup:282 value:0
Archreg:27 Phyreg lookup:283 value:0
Archreg:28 Phyreg lookup:284 value:0
Archreg:29 Phyreg lookup:285 value:0
Archreg:30 Phyreg lookup:286 value:0
Archreg:31 Phyreg lookup:287 value:0
Archreg:32 Phyreg lookup:288 value:0
Archreg:33 Phyreg lookup:289 value:0
Archreg:34 Phyreg lookup:290 value:0
Archreg:35 Phyreg lookup:291 value:0
Archreg:36 Phyreg lookup:292 value:0
Archreg:37 Phyreg lookup:293 value:0
Archreg:38 Phyreg lookup:294 value:0
Archreg:39 Phyreg lookup:295 value:0
Archreg:40 Phyreg lookup:296 value:0
Archreg:41 Phyreg lookup:297 value:0
Archreg:42 Phyreg lookup:298 value:0
Archreg:43 Phyreg lookup:299 value:0
Archreg:44 Phyreg lookup:300 value:0
Archreg:45 Phyreg lookup:301 value:0
Archreg:46 Phyreg lookup:302 value:0
Archreg:47 Phyreg lookup:303 value:0
Archreg:48 Phyreg lookup:304 value:0
Archreg:49 Phyreg lookup:305 value:0
Archreg:50 Phyreg lookup:306 value:0
Archreg:51 Phyreg lookup:307 value:0
Archreg:52 Phyreg lookup:308 value:0
Archreg:53 Phyreg lookup:309 value:0
Archreg:54 Phyreg lookup:310 value:0
Archreg:55 Phyreg lookup:311 value:0
Archreg:56 Phyreg lookup:312 value:0
Archreg:57 Phyreg lookup:313 value:0
Archreg:58 Phyreg lookup:314 value:0
Archreg:59 Phyreg lookup:315 value:0
Archreg:60 Phyreg lookup:316 value:0
Archreg:61 Phyreg lookup:317 value:0
Archreg:62 Phyreg lookup:318 value:0
Archreg:63 Phyreg lookup:319 value:0
Archreg:64 Phyreg lookup:320 value:0
Archreg:65 Phyreg lookup:321 value:0
Archreg:66 Phyreg lookup:322 value:0
Archreg:67 Phyreg lookup:323 value:0
Archreg:68 Phyreg lookup:324 value:0
Archreg:69 Phyreg lookup:325 value:0
Archreg:70 Phyreg lookup:326 value:0
Archreg:71 Phyreg lookup:327 value:0
Archreg:72 Phyreg lookup:328 value:0
Archreg:73 Phyreg lookup:329 value:0
Archreg:74 Phyreg lookup:330 value:0
Archreg:75 Phyreg lookup:331 value:0
Archreg:76 Phyreg lookup:332 value:0
Archreg:77 Phyreg lookup:333 value:0
Archreg:78 Phyreg lookup:334 value:0
Archreg:79 Phyreg lookup:335 value:0
Archreg:80 Phyreg lookup:336 value:0
Archreg:81 Phyreg lookup:337 value:0
Archreg:82 Phyreg lookup:338 value:0
Archreg:83 Phyreg lookup:339 value:0
Archreg:84 Phyreg lookup:340 value:0
Archreg:85 Phyreg lookup:341 value:0
Archreg:86 Phyreg lookup:342 value:0
Archreg:87 Phyreg lookup:343 value:0
Archreg:88 Phyreg lookup:344 value:0
Archreg:89 Phyreg lookup:345 value:0
Archreg:90 Phyreg lookup:346 value:0
Archreg:91 Phyreg lookup:347 value:0
Archreg:92 Phyreg lookup:348 value:0
Archreg:93 Phyreg lookup:349 value:0
Archreg:94 Phyreg lookup:350 value:0
Archreg:95 Phyreg lookup:351 value:0
Archreg:96 Phyreg lookup:352 value:0
Archreg:97 Phyreg lookup:353 value:0
Archreg:98 Phyreg lookup:354 value:0
Archreg:99 Phyreg lookup:355 value:0
Archreg:100 Phyreg lookup:356 value:0
Archreg:101 Phyreg lookup:357 value:0
Archreg:102 Phyreg lookup:358 value:0
Archreg:103 Phyreg lookup:359 value:0
Archreg:104 Phyreg lookup:360 value:0
Archreg:105 Phyreg lookup:361 value:0
Archreg:106 Phyreg lookup:362 value:0
Archreg:107 Phyreg lookup:363 value:0
Archreg:108 Phyreg lookup:364 value:0
Archreg:109 Phyreg lookup:365 value:0
Archreg:110 Phyreg lookup:366 value:0
Archreg:111 Phyreg lookup:367 value:0
Archreg:112 Phyreg lookup:368 value:0
Archreg:113 Phyreg lookup:369 value:0
Archreg:114 Phyreg lookup:370 value:0
Archreg:115 Phyreg lookup:371 value:0
Archreg:116 Phyreg lookup:372 value:0
Archreg:117 Phyreg lookup:373 value:0
Archreg:118 Phyreg lookup:374 value:0
Archreg:119 Phyreg lookup:375 value:0
Archreg:120 Phyreg lookup:376 value:0
Archreg:121 Phyreg lookup:377 value:0
Archreg:122 Phyreg lookup:378 value:0
Archreg:123 Phyreg lookup:379 value:0
Archreg:124 Phyreg lookup:380 value:0
Archreg:125 Phyreg lookup:381 value:0
Archreg:126 Phyreg lookup:382 value:0
Archreg:127 Phyreg lookup:383 value:0
Archreg:128 Phyreg lookup:384 value:0
Archreg:129 Phyreg lookup:385 value:0
Archreg:130 Phyreg lookup:386 value:0
Archreg:131 Phyreg lookup:387 value:0
Archreg:132 Phyreg lookup:388 value:0
Archreg:133 Phyreg lookup:389 value:0
Archreg:134 Phyreg lookup:390 value:0
Archreg:135 Phyreg lookup:391 value:0
Archreg:136 Phyreg lookup:392 value:0
Archreg:137 Phyreg lookup:393 value:0
Archreg:138 Phyreg lookup:394 value:0
Archreg:139 Phyreg lookup:395 value:0
Archreg:140 Phyreg lookup:396 value:0
Archreg:141 Phyreg lookup:397 value:0
Archreg:142 Phyreg lookup:398 value:0
Archreg:143 Phyreg lookup:399 value:0
Archreg:144 Phyreg lookup:400 value:0
Archreg:145 Phyreg lookup:401 value:0
Archreg:146 Phyreg lookup:402 value:0
Archreg:147 Phyreg lookup:403 value:0
Archreg:148 Phyreg lookup:404 value:0
Archreg:149 Phyreg lookup:405 value:0
Archreg:150 Phyreg lookup:406 value:0
Archreg:151 Phyreg lookup:407 value:0
Archreg:152 Phyreg lookup:408 value:0
Archreg:153 Phyreg lookup:409 value:0
Archreg:154 Phyreg lookup:410 value:0
Archreg:155 Phyreg lookup:411 value:0
Archreg:156 Phyreg lookup:412 value:0
Archreg:157 Phyreg lookup:413 value:0
Archreg:158 Phyreg lookup:414 value:0
Archreg:159 Phyreg lookup:415 value:0
*****CC REG mappings total TheISA::NumCCRegs:6
Archreg:0 Phyreg lookup:617 value:0
Archreg:1 Phyreg lookup:616 value:1
Archreg:2 Phyreg lookup:643 value:0
Archreg:3 Phyreg lookup:515 value:0
Archreg:4 Phyreg lookup:851 value:0
Archreg:5 Phyreg lookup:517 value:0
*****TRANSFORM going to print the reg mappings now!
*****INT REG mappings total TheISA::NumIntRegs:43
Archreg:0 Phyreg lookup:66 value:5180228
Archreg:1 Phyreg lookup:68 value:5185708
Archreg:2 Phyreg lookup:127 value:172280
Archreg:3 Phyreg lookup:0 value:5185716
Archreg:4 Phyreg lookup:90 value:173064
Archreg:5 Phyreg lookup:123 value:4291532
Archreg:6 Phyreg lookup:48 value:5360388
Archreg:7 Phyreg lookup:98 value:4970092
Archreg:8 Phyreg lookup:78 value:0
Archreg:9 Phyreg lookup:105 value:5185724
Archreg:10 Phyreg lookup:53 value:5536516
Archreg:11 Phyreg lookup:7 value:4
Archreg:12 Phyreg lookup:107 value:0
Archreg:13 Phyreg lookup:69 value:173048
Archreg:14 Phyreg lookup:106 value:173032
Archreg:15 Phyreg lookup:128 value:0
Archreg:16 Phyreg lookup:16 value:0
Archreg:17 Phyreg lookup:17 value:0
Archreg:18 Phyreg lookup:18 value:0
Archreg:19 Phyreg lookup:19 value:0
Archreg:20 Phyreg lookup:20 value:0
Archreg:21 Phyreg lookup:21 value:0
Archreg:22 Phyreg lookup:22 value:0
Archreg:23 Phyreg lookup:23 value:0
Archreg:24 Phyreg lookup:24 value:0
Archreg:25 Phyreg lookup:25 value:0
Archreg:26 Phyreg lookup:26 value:0
Archreg:27 Phyreg lookup:27 value:0
Archreg:28 Phyreg lookup:28 value:0
Archreg:29 Phyreg lookup:29 value:0
Archreg:30 Phyreg lookup:30 value:0
Archreg:31 Phyreg lookup:31 value:0
Archreg:32 Phyreg lookup:32 value:0
Archreg:33 Phyreg lookup:33 value:0
Archreg:34 Phyreg lookup:34 value:0
Archreg:35 Phyreg lookup:60 value:767099
Archreg:36 Phyreg lookup:74 value:5185756
Archreg:37 Phyreg lookup:37 value:0
Archreg:38 Phyreg lookup:38 value:0
Archreg:39 Phyreg lookup:39 value:0
Archreg:40 Phyreg lookup:40 value:0
Archreg:41 Phyreg lookup:41 value:0
Archreg:42 Phyreg lookup:42 value:0
*****FLOAT REG mappings total TheISA::NumFloatRegs:160
Archreg:0 Phyreg lookup:256 value:0
Archreg:1 Phyreg lookup:257 value:0
Archreg:2 Phyreg lookup:258 value:0
Archreg:3 Phyreg lookup:259 value:0
Archreg:4 Phyreg lookup:260 value:0
Archreg:5 Phyreg lookup:261 value:0
Archreg:6 Phyreg lookup:262 value:0
Archreg:7 Phyreg lookup:263 value:0
Archreg:8 Phyreg lookup:264 value:0
Archreg:9 Phyreg lookup:265 value:0
Archreg:10 Phyreg lookup:266 value:0
Archreg:11 Phyreg lookup:267 value:0
Archreg:12 Phyreg lookup:268 value:0
Archreg:13 Phyreg lookup:269 value:0
Archreg:14 Phyreg lookup:270 value:0
Archreg:15 Phyreg lookup:271 value:0
Archreg:16 Phyreg lookup:272 value:0
Archreg:17 Phyreg lookup:273 value:0
Archreg:18 Phyreg lookup:274 value:0
Archreg:19 Phyreg lookup:275 value:0
Archreg:20 Phyreg lookup:276 value:0
Archreg:21 Phyreg lookup:277 value:0
Archreg:22 Phyreg lookup:278 value:0
Archreg:23 Phyreg lookup:279 value:0
Archreg:24 Phyreg lookup:280 value:0
Archreg:25 Phyreg lookup:281 value:0
Archreg:26 Phyreg lookup:282 value:0
Archreg:27 Phyreg lookup:283 value:0
Archreg:28 Phyreg lookup:284 value:0
Archreg:29 Phyreg lookup:285 value:0
Archreg:30 Phyreg lookup:286 value:0
Archreg:31 Phyreg lookup:287 value:0
Archreg:32 Phyreg lookup:288 value:0
Archreg:33 Phyreg lookup:289 value:0
Archreg:34 Phyreg lookup:290 value:0
Archreg:35 Phyreg lookup:291 value:0
Archreg:36 Phyreg lookup:292 value:0
Archreg:37 Phyreg lookup:293 value:0
Archreg:38 Phyreg lookup:294 value:0
Archreg:39 Phyreg lookup:295 value:0
Archreg:40 Phyreg lookup:296 value:0
Archreg:41 Phyreg lookup:297 value:0
Archreg:42 Phyreg lookup:298 value:0
Archreg:43 Phyreg lookup:299 value:0
Archreg:44 Phyreg lookup:300 value:0
Archreg:45 Phyreg lookup:301 value:0
Archreg:46 Phyreg lookup:302 value:0
Archreg:47 Phyreg lookup:303 value:0
Archreg:48 Phyreg lookup:304 value:0
Archreg:49 Phyreg lookup:305 value:0
Archreg:50 Phyreg lookup:306 value:0
Archreg:51 Phyreg lookup:307 value:0
Archreg:52 Phyreg lookup:308 value:0
Archreg:53 Phyreg lookup:309 value:0
Archreg:54 Phyreg lookup:310 value:0
Archreg:55 Phyreg lookup:311 value:0
Archreg:56 Phyreg lookup:312 value:0
Archreg:57 Phyreg lookup:313 value:0
Archreg:58 Phyreg lookup:314 value:0
Archreg:59 Phyreg lookup:315 value:0
Archreg:60 Phyreg lookup:316 value:0
Archreg:61 Phyreg lookup:317 value:0
Archreg:62 Phyreg lookup:318 value:0
Archreg:63 Phyreg lookup:319 value:0
Archreg:64 Phyreg lookup:320 value:0
Archreg:65 Phyreg lookup:321 value:0
Archreg:66 Phyreg lookup:322 value:0
Archreg:67 Phyreg lookup:323 value:0
Archreg:68 Phyreg lookup:324 value:0
Archreg:69 Phyreg lookup:325 value:0
Archreg:70 Phyreg lookup:326 value:0
Archreg:71 Phyreg lookup:327 value:0
Archreg:72 Phyreg lookup:328 value:0
Archreg:73 Phyreg lookup:329 value:0
Archreg:74 Phyreg lookup:330 value:0
Archreg:75 Phyreg lookup:331 value:0
Archreg:76 Phyreg lookup:332 value:0
Archreg:77 Phyreg lookup:333 value:0
Archreg:78 Phyreg lookup:334 value:0
Archreg:79 Phyreg lookup:335 value:0
Archreg:80 Phyreg lookup:336 value:0
Archreg:81 Phyreg lookup:337 value:0
Archreg:82 Phyreg lookup:338 value:0
Archreg:83 Phyreg lookup:339 value:0
Archreg:84 Phyreg lookup:340 value:0
Archreg:85 Phyreg lookup:341 value:0
Archreg:86 Phyreg lookup:342 value:0
Archreg:87 Phyreg lookup:343 value:0
Archreg:88 Phyreg lookup:344 value:0
Archreg:89 Phyreg lookup:345 value:0
Archreg:90 Phyreg lookup:346 value:0
Archreg:91 Phyreg lookup:347 value:0
Archreg:92 Phyreg lookup:348 value:0
Archreg:93 Phyreg lookup:349 value:0
Archreg:94 Phyreg lookup:350 value:0
Archreg:95 Phyreg lookup:351 value:0
Archreg:96 Phyreg lookup:352 value:0
Archreg:97 Phyreg lookup:353 value:0
Archreg:98 Phyreg lookup:354 value:0
Archreg:99 Phyreg lookup:355 value:0
Archreg:100 Phyreg lookup:356 value:0
Archreg:101 Phyreg lookup:357 value:0
Archreg:102 Phyreg lookup:358 value:0
Archreg:103 Phyreg lookup:359 value:0
Archreg:104 Phyreg lookup:360 value:0
Archreg:105 Phyreg lookup:361 value:0
Archreg:106 Phyreg lookup:362 value:0
Archreg:107 Phyreg lookup:363 value:0
Archreg:108 Phyreg lookup:364 value:0
Archreg:109 Phyreg lookup:365 value:0
Archreg:110 Phyreg lookup:366 value:0
Archreg:111 Phyreg lookup:367 value:0
Archreg:112 Phyreg lookup:368 value:0
Archreg:113 Phyreg lookup:369 value:0
Archreg:114 Phyreg lookup:370 value:0
Archreg:115 Phyreg lookup:371 value:0
Archreg:116 Phyreg lookup:372 value:0
Archreg:117 Phyreg lookup:373 value:0
Archreg:118 Phyreg lookup:374 value:0
Archreg:119 Phyreg lookup:375 value:0
Archreg:120 Phyreg lookup:376 value:0
Archreg:121 Phyreg lookup:377 value:0
Archreg:122 Phyreg lookup:378 value:0
Archreg:123 Phyreg lookup:379 value:0
[...]
Archreg:17 Phyreg lookup:17 value:0
Archreg:18 Phyreg lookup:18 value:0
Archreg:19 Phyreg lookup:19 value:0
Archreg:20 Phyreg lookup:20 value:0
Archreg:21 Phyreg lookup:21 value:0
Archreg:22 Phyreg lookup:22 value:0
Archreg:23 Phyreg lookup:23 value:0
Archreg:24 Phyreg lookup:24 value:0
Archreg:25 Phyreg lookup:25 value:0
Archreg:26 Phyreg lookup:26 value:0
Archreg:27 Phyreg lookup:27 value:0
Archreg:28 Phyreg lookup:28 value:0
Archreg:29 Phyreg lookup:29 value:0
Archreg:30 Phyreg lookup:30 value:0
Archreg:31 Phyreg lookup:31 value:0
Archreg:32 Phyreg lookup:32 value:0
Archreg:33 Phyreg lookup:33 value:0
Archreg:34 Phyreg lookup:34 value:0
Archreg:35 Phyreg lookup:60 value:767099
Archreg:36 Phyreg lookup:74 value:5185756
Archreg:37 Phyreg lookup:37 value:0
Archreg:38 Phyreg lookup:38 value:0
Archreg:39 Phyreg lookup:39 value:0
Archreg:40 Phyreg lookup:40 value:0
Archreg:41 Phyreg lookup:41 value:0
Archreg:42 Phyreg lookup:42 value:0
*****FLOAT REG mappings total TheISA::NumFloatRegs:160
Archreg:0 Phyreg lookup:256 value:0
Archreg:1 Phyreg lookup:257 value:0
Archreg:2 Phyreg lookup:258 value:0
Archreg:3 Phyreg lookup:259 value:0
Archreg:4 Phyreg lookup:260 value:0
Archreg:5 Phyreg lookup:261 value:0
Archreg:6 Phyreg lookup:262 value:0
Archreg:7 Phyreg lookup:263 value:0
Archreg:8 Phyreg lookup:264 value:0
Archreg:9 Phyreg lookup:265 value:0
Archreg:10 Phyreg lookup:266 value:0
Archreg:11 Phyreg lookup:267 value:0
Archreg:12 Phyreg lookup:268 value:0
Archreg:13 Phyreg lookup:269 value:0
Archreg:14 Phyreg lookup:270 value:0
Archreg:15 Phyreg lookup:271 value:0
Archreg:16 Phyreg lookup:272 value:0
Archreg:17 Phyreg lookup:273 value:0
Archreg:18 Phyreg lookup:274 value:0
Archreg:19 Phyreg lookup:275 value:0
Archreg:20 Phyreg lookup:276 value:0
Archreg:21 Phyreg lookup:277 value:0
Archreg:22 Phyreg lookup:278 value:0
Archreg:23 Phyreg lookup:279 value:0
Archreg:24 Phyreg lookup:280 value:0
Archreg:25 Phyreg lookup:281 value:0
Archreg:26 Phyreg lookup:282 value:0
Archreg:27 Phyreg lookup:283 value:0
Archreg:28 Phyreg lookup:284 value:0
Archreg:29 Phyreg lookup:285 value:0
Archreg:30 Phyreg lookup:286 value:0
Archreg:31 Phyreg lookup:287 value:0
Archreg:32 Phyreg lookup:288 value:0
Archreg:33 Phyreg lookup:289 value:0
Archreg:34 Phyreg lookup:290 value:0
Archreg:35 Phyreg lookup:291 value:0
Archreg:36 Phyreg lookup:292 value:0
Archreg:37 Phyreg lookup:293 value:0
Archreg:38 Phyreg lookup:294 value:0
Archreg:39 Phyreg lookup:295 value:0
Archreg:40 Phyreg lookup:296 value:0
Archreg:41 Phyreg lookup:297 value:0
Archreg:42 Phyreg lookup:298 value:0
Archreg:43 Phyreg lookup:299 value:0
Archreg:44 Phyreg lookup:300 value:0
Archreg:45 Phyreg lookup:301 value:0
Archreg:46 Phyreg lookup:302 value:0
Archreg:47 Phyreg lookup:303 value:0
Archreg:48 Phyreg lookup:304 value:0
Archreg:49 Phyreg lookup:305 value:0
Archreg:50 Phyreg lookup:306 value:0
Archreg:51 Phyreg lookup:307 value:0
Archreg:52 Phyreg lookup:308 value:0
Archreg:53 Phyreg lookup:309 value:0
Archreg:54 Phyreg lookup:310 value:0
Archreg:55 Phyreg lookup:311 value:0
Archreg:56 Phyreg lookup:312 value:0
Archreg:57 Phyreg lookup:313 value:0
Archreg:58 Phyreg lookup:314 value:0
Archreg:59 Phyreg lookup:315 value:0
Archreg:60 Phyreg lookup:316 value:0
Archreg:61 Phyreg lookup:317 value:0
Archreg:62 Phyreg lookup:318 value:0
Archreg:63 Phyreg lookup:319 value:0
Archreg:64 Phyreg lookup:320 value:0
Archreg:65 Phyreg lookup:321 value:0
Archreg:66 Phyreg lookup:322 value:0
Archreg:67 Phyreg lookup:323 value:0
Archreg:68 Phyreg lookup:324 value:0
Archreg:69 Phyreg lookup:325 value:0
Archreg:70 Phyreg lookup:326 value:0
Archreg:71 Phyreg lookup:327 value:0
Archreg:72 Phyreg lookup:328 value:0
Archreg:73 Phyreg lookup:329 value:0
Archreg:74 Phyreg lookup:330 value:0
Archreg:75 Phyreg lookup:331 value:0
Archreg:76 Phyreg lookup:332 value:0
Archreg:77 Phyreg lookup:333 value:0
Archreg:78 Phyreg lookup:334 value:0
Archreg:79 Phyreg lookup:335 value:0
Archreg:80 Phyreg lookup:336 value:0
Archreg:81 Phyreg lookup:337 value:0
Archreg:82 Phyreg lookup:338 value:0
Archreg:83 Phyreg lookup:339 value:0
Archreg:84 Phyreg lookup:340 value:0
Archreg:85 Phyreg lookup:341 value:0
Archreg:86 Phyreg lookup:342 value:0
Archreg:87 Phyreg lookup:343 value:0
Archreg:88 Phyreg lookup:344 value:0
Archreg:89 Phyreg lookup:345 value:0
Archreg:90 Phyreg lookup:346 value:0
Archreg:91 Phyreg lookup:347 value:0
Archreg:92 Phyreg lookup:348 value:0
Archreg:93 Phyreg lookup:349 value:0
Archreg:94 Phyreg lookup:350 value:0
Archreg:95 Phyreg lookup:351 value:0
Archreg:96 Phyreg lookup:352 value:0
Archreg:97 Phyreg lookup:353 value:0
Archreg:98 Phyreg lookup:354 value:0
Archreg:99 Phyreg lookup:355 value:0
Archreg:100 Phyreg lookup:356 value:0
Archreg:101 Phyreg lookup:357 value:0
Archreg:102 Phyreg lookup:358 value:0
Archreg:103 Phyreg lookup:359 value:0
Archreg:104 Phyreg lookup:360 value:0
Archreg:105 Phyreg lookup:361 value:0
Archreg:106 Phyreg lookup:362 value:0
Archreg:107 Phyreg lookup:363 value:0
Archreg:108 Phyreg lookup:364 value:0
Archreg:109 Phyreg lookup:365 value:0
Archreg:110 Phyreg lookup:366 value:0
Archreg:111 Phyreg lookup:367 value:0
Archreg:112 Phyreg lookup:368 value:0
Archreg:113 Phyreg lookup:369 value:0
Archreg:114 Phyreg lookup:370 value:0
Archreg:115 Phyreg lookup:371 value:0
Archreg:116 Phyreg lookup:372 value:0
Archreg:117 Phyreg lookup:373 value:0
Archreg:118 Phyreg lookup:374 value:0
Archreg:119 Phyreg lookup:375 value:0
Archreg:120 Phyreg lookup:376 value:0
Archreg:121 Phyreg lookup:377 value:0
Archreg:122 Phyreg lookup:378 value:0
Archreg:123 Phyreg lookup:379 value:0
Archreg:124 Phyreg lookup:380 value:0
Archreg:125 Phyreg lookup:381 value:0
Archreg:126 Phyreg lookup:382 value:0
Archreg:127 Phyreg lookup:383 value:0
Archreg:128 Phyreg lookup:384 value:0
Archreg:129 Phyreg lookup:385 value:0
Archreg:130 Phyreg lookup:386 value:0
Archreg:131 Phyreg lookup:387 value:0
Archreg:132 Phyreg lookup:388 value:0
Archreg:133 Phyreg lookup:389 value:0
Archreg:134 Phyreg lookup:390 value:0
Archreg:135 Phyreg lookup:391 value:0
Archreg:136 Phyreg lookup:392 value:0
Archreg:137 Phyreg lookup:393 value:0
Archreg:138 Phyreg lookup:394 value:0
Archreg:139 Phyreg lookup:395 value:0
Archreg:140 Phyreg lookup:396 value:0
Archreg:141 Phyreg lookup:397 value:0
Archreg:142 Phyreg lookup:398 value:0
Archreg:143 Phyreg lookup:399 value:0
Archreg:144 Phyreg lookup:400 value:0
Archreg:145 Phyreg lookup:401 value:0
Archreg:146 Phyreg lookup:402 value:0
Archreg:147 Phyreg lookup:403 value:0
Archreg:148 Phyreg lookup:404 value:0
Archreg:149 Phyreg lookup:405 value:0
Archreg:150 Phyreg lookup:406 value:0
Archreg:151 Phyreg lookup:407 value:0
Archreg:152 Phyreg lookup:408 value:0
Archreg:153 Phyreg lookup:409 value:0
Archreg:154 Phyreg lookup:410 value:0
Archreg:155 Phyreg lookup:411 value:0
Archreg:156 Phyreg lookup:412 value:0
Archreg:157 Phyreg lookup:413 value:0
Archreg:158 Phyreg lookup:414 value:0
Archreg:159 Phyreg lookup:415 value:0
*****CC REG mappings total TheISA::NumCCRegs:6
Archreg:0 Phyreg lookup:617 value:0
Archreg:1 Phyreg lookup:616 value:1
Archreg:2 Phyreg lookup:643 value:0
Archreg:3 Phyreg lookup:515 value:0
Archreg:4 Phyreg lookup:851 value:0
Archreg:5 Phyreg lookup:517 value:0
restrict_intreg_mapping: Skipping phy:66 against regfile->numIntPhysRegs():256 with tf_regfile_scale_factor:2
restrict_intreg_mapping: Skipping phy:68 against regfile->numIntPhysRegs():256 with tf_regfile_scale_factor:2
restrict_intreg_mapping: Skipping phy:127 against regfile->numIntPhysRegs():256 with tf_regfile_scale_factor:2
restrict_intreg_mapping: Skipping phy:0 against regfile->numIntPhysRegs():256 with tf_regfile_scale_factor:2
restrict_intreg_mapping: Skipping phy:90 against regfile->numIntPhysRegs():256 with tf_regfile_scale_factor:2
restrict_intreg_mapping: Skipping phy:123 against regfile->numIntPhysRegs():256 with tf_regfile_scale_factor:2
restrict_intreg_mapping: Skipping phy:48 against regfile->numIntPhysRegs():256 with tf_regfile_scale_factor:2
restrict_intreg_mapping: Skipping phy:98 against regfile->numIntPhysRegs():256 with tf_regfile_scale_factor:2
restrict_intreg_mapping: Skipping phy:78 against regfile->numIntPhysRegs():256 with tf_regfile_scale_factor:2
restrict_intreg_mapping: Skipping phy:105 against regfile->numIntPhysRegs():256 with tf_regfile_scale_factor:2
restrict_intreg_mapping: Skipping phy:53 against regfile->numIntPhysRegs():256 with tf_regfile_scale_factor:2
restrict_intreg_mapping: Skipping phy:7 against regfile->numIntPhysRegs():256 with tf_regfile_scale_factor:2
restrict_intreg_mapping: Skipping phy:107 against regfile->numIntPhysRegs():256 with tf_regfile_scale_factor:2
restrict_intreg_mapping: Skipping phy:69 against regfile->numIntPhysRegs():256 with tf_regfile_scale_factor:2
restrict_intreg_mapping: Skipping phy:106 against regfile->numIntPhysRegs():256 with tf_regfile_scale_factor:2
restrict_intreg_mapping: Skipping phy:128 against regfile->numIntPhysRegs():256 with tf_regfile_scale_factor:2
restrict_intreg_mapping: Skipping phy:16 against regfile->numIntPhysRegs():256 with tf_regfile_scale_factor:2
restrict_intreg_mapping: Skipping phy:17 against regfile->numIntPhysRegs():256 with tf_regfile_scale_factor:2
restrict_intreg_mapping: Skipping phy:18 against regfile->numIntPhysRegs():256 with tf_regfile_scale_factor:2
restrict_intreg_mapping: Skipping phy:19 against regfile->numIntPhysRegs():256 with tf_regfile_scale_factor:2
restrict_intreg_mapping: Skipping phy:20 against regfile->numIntPhysRegs():256 with tf_regfile_scale_factor:2
restrict_intreg_mapping: Skipping phy:21 against regfile->numIntPhysRegs():256 with tf_regfile_scale_factor:2
restrict_intreg_mapping: Skipping phy:22 against regfile->numIntPhysRegs():256 with tf_regfile_scale_factor:2
restrict_intreg_mapping: Skipping phy:23 against regfile->numIntPhysRegs():256 with tf_regfile_scale_factor:2
restrict_intreg_mapping: Skipping phy:24 against regfile->numIntPhysRegs():256 with tf_regfile_scale_factor:2
restrict_intreg_mapping: Skipping phy:25 against regfile->numIntPhysRegs():256 with tf_regfile_scale_factor:2
restrict_intreg_mapping: Skipping phy:26 against regfile->numIntPhysRegs():256 with tf_regfile_scale_factor:2
restrict_intreg_mapping: Skipping phy:27 against regfile->numIntPhysRegs():256 with tf_regfile_scale_factor:2
restrict_intreg_mapping: Skipping phy:28 against regfile->numIntPhysRegs():256 with tf_regfile_scale_factor:2
restrict_intreg_mapping: Skipping phy:29 against regfile->numIntPhysRegs():256 with tf_regfile_scale_factor:2
restrict_intreg_mapping: Skipping phy:30 against regfile->numIntPhysRegs():256 with tf_regfile_scale_factor:2
restrict_intreg_mapping: Skipping phy:31 against regfile->numIntPhysRegs():256 with tf_regfile_scale_factor:2
restrict_intreg_mapping: Skipping phy:32 against regfile->numIntPhysRegs():256 with tf_regfile_scale_factor:2
restrict_intreg_mapping: Skipping phy:33 against regfile->numIntPhysRegs():256 with tf_regfile_scale_factor:2
restrict_intreg_mapping: Skipping phy:34 against regfile->numIntPhysRegs():256 with tf_regfile_scale_factor:2
restrict_intreg_mapping: Skipping phy:60 against regfile->numIntPhysRegs():256 with tf_regfile_scale_factor:2
restrict_intreg_mapping: Skipping phy:74 against regfile->numIntPhysRegs():256 with tf_regfile_scale_factor:2
restrict_intreg_mapping: Skipping phy:37 against regfile->numIntPhysRegs():256 with tf_regfile_scale_factor:2
restrict_intreg_mapping: Skipping phy:38 against regfile->numIntPhysRegs():256 with tf_regfile_scale_factor:2
restrict_intreg_mapping: Skipping phy:39 against regfile->numIntPhysRegs():256 with tf_regfile_scale_factor:2
restrict_intreg_mapping: Skipping phy:40 against regfile->numIntPhysRegs():256 with tf_regfile_scale_factor:2
restrict_intreg_mapping: Skipping phy:41 against regfile->numIntPhysRegs():256 with tf_regfile_scale_factor:2
restrict_intreg_mapping: Skipping phy:42 against regfile->numIntPhysRegs():256 with tf_regfile_scale_factor:2
*****TRANSFORM going to print the reg mappings now!
*****INT REG mappings total TheISA::NumIntRegs:43
Archreg:0 Phyreg lookup:66 value:5180228
Archreg:1 Phyreg lookup:68 value:5185708
Archreg:2 Phyreg lookup:127 value:172280
Archreg:3 Phyreg lookup:0 value:5185716
Archreg:4 Phyreg lookup:90 value:173064
Archreg:5 Phyreg lookup:123 value:4291532
Archreg:6 Phyreg lookup:48 value:5360388
Archreg:7 Phyreg lookup:98 value:4970092
Archreg:8 Phyreg lookup:78 value:0
Archreg:9 Phyreg lookup:105 value:5185724
Archreg:10 Phyreg lookup:53 value:5536516
Archreg:11 Phyreg lookup:7 value:4
Archreg:12 Phyreg lookup:107 value:0
Archreg:13 Phyreg lookup:69 value:173048
Archreg:14 Phyreg lookup:106 value:173032
Archreg:15 Phyreg lookup:128 value:0
Archreg:16 Phyreg lookup:16 value:0
Archreg:17 Phyreg lookup:17 value:0
Archreg:18 Phyreg lookup:18 value:0
Archreg:19 Phyreg lookup:19 value:0
Archreg:20 Phyreg lookup:20 value:0
Archreg:21 Phyreg lookup:21 value:0
Archreg:22 Phyreg lookup:22 value:0
Archreg:23 Phyreg lookup:23 value:0
Archreg:24 Phyreg lookup:24 value:0
Archreg:25 Phyreg lookup:25 value:0
Archreg:26 Phyreg lookup:26 value:0
Archreg:27 Phyreg lookup:27 value:0
Archreg:28 Phyreg lookup:28 value:0
Archreg:29 Phyreg lookup:29 value:0
Archreg:30 Phyreg lookup:30 value:0
Archreg:31 Phyreg lookup:31 value:0
Archreg:32 Phyreg lookup:32 value:0
Archreg:33 Phyreg lookup:33 value:0
Archreg:34 Phyreg lookup:34 value:0
Archreg:35 Phyreg lookup:60 value:767099
Archreg:36 Phyreg lookup:74 value:5185756
Archreg:37 Phyreg lookup:37 value:0
Archreg:38 Phyreg lookup:38 value:0
Archreg:39 Phyreg lookup:39 value:0
Archreg:40 Phyreg lookup:40 value:0
Archreg:41 Phyreg lookup:41 value:0
Archreg:42 Phyreg lookup:42 value:0
*****FLOAT REG mappings total TheISA::NumFloatRegs:160
Archreg:0 Phyreg lookup:256 value:0
Archreg:1 Phyreg lookup:257 value:0
Archreg:2 Phyreg lookup:258 value:0
Archreg:3 Phyreg lookup:259 value:0
Archreg:4 Phyreg lookup:260 value:0
Archreg:5 Phyreg lookup:261 value:0
Archreg:6 Phyreg lookup:262 value:0
Archreg:7 Phyreg lookup:263 value:0
Archreg:8 Phyreg lookup:264 value:0
Archreg:9 Phyreg lookup:265 value:0
Archreg:10 Phyreg lookup:266 value:0
Archreg:11 Phyreg lookup:267 value:0
Archreg:12 Phyreg lookup:268 value:0
Archreg:13 Phyreg lookup:269 value:0
Archreg:14 Phyreg lookup:270 value:0
Archreg:15 Phyreg lookup:271 value:0
Archreg:16 Phyreg lookup:272 value:0
Archreg:17 Phyreg lookup:273 value:0
Archreg:18 Phyreg lookup:274 value:0
Archreg:19 Phyreg lookup:275 value:0
Archreg:20 Phyreg lookup:276 value:0
Archreg:21 Phyreg lookup:277 value:0
Archreg:22 Phyreg lookup:278 value:0
Archreg:23 Phyreg lookup:279 value:0
Archreg:24 Phyreg lookup:280 value:0
Archreg:25 Phyreg lookup:281 value:0
Archreg:26 Phyreg lookup:282 value:0
Archreg:27 Phyreg lookup:283 value:0
Archreg:28 Phyreg lookup:284 value:0
Archreg:29 Phyreg lookup:285 value:0
Archreg:30 Phyreg lookup:286 value:0
Archreg:31 Phyreg lookup:287 value:0
Archreg:32 Phyreg lookup:288 value:0
Archreg:33 Phyreg lookup:289 value:0
Archreg:34 Phyreg lookup:290 value:0
Archreg:35 Phyreg lookup:291 value:0
Archreg:36 Phyreg lookup:292 value:0
Archreg:37 Phyreg lookup:293 value:0
Archreg:38 Phyreg lookup:294 value:0
Archreg:39 Phyreg lookup:295 value:0
Archreg:40 Phyreg lookup:296 value:0
Archreg:41 Phyreg lookup:297 value:0
Archreg:42 Phyreg lookup:298 value:0
Archreg:43 Phyreg lookup:299 value:0
Archreg:44 Phyreg lookup:300 value:0
Archreg:45 Phyreg lookup:301 value:0
Archreg:46 Phyreg lookup:302 value:0
Archreg:47 Phyreg lookup:303 value:0
Archreg:48 Phyreg lookup:304 value:0
Archreg:49 Phyreg lookup:305 value:0
Archreg:50 Phyreg lookup:306 value:0
Archreg:51 Phyreg lookup:307 value:0
Archreg:52 Phyreg lookup:308 value:0
Archreg:53 Phyreg lookup:309 value:0
Archreg:54 Phyreg lookup:310 value:0
Archreg:55 Phyreg lookup:311 value:0
Archreg:56 Phyreg lookup:312 value:0
Archreg:57 Phyreg lookup:313 value:0
Archreg:58 Phyreg lookup:314 value:0
Archreg:59 Phyreg lookup:315 value:0
Archreg:60 Phyreg lookup:316 value:0
Archreg:61 Phyreg lookup:317 value:0
Archreg:62 Phyreg lookup:318 value:0
Archreg:63 Phyreg lookup:319 value:0
Archreg:64 Phyreg lookup:320 value:0
Archreg:65 Phyreg lookup:321 value:0
Archreg:66 Phyreg lookup:322 value:0
Archreg:67 Phyreg lookup:323 value:0
Archreg:68 Phyreg lookup:324 value:0
Archreg:69 Phyreg lookup:325 value:0
Archreg:70 Phyreg lookup:326 value:0
Archreg:71 Phyreg lookup:327 value:0
Archreg:72 Phyreg lookup:328 value:0
Archreg:73 Phyreg lookup:329 value:0
Archreg:74 Phyreg lookup:330 value:0
Archreg:75 Phyreg lookup:331 value:0
Archreg:76 Phyreg lookup:332 value:0
Archreg:77 Phyreg lookup:333 value:0
Archreg:78 Phyreg lookup:334 value:0
Archreg:79 Phyreg lookup:335 value:0
Archreg:80 Phyreg lookup:336 value:0
Archreg:81 Phyreg lookup:337 value:0
Archreg:82 Phyreg lookup:338 value:0
Archreg:83 Phyreg lookup:339 value:0
Archreg:84 Phyreg lookup:340 value:0
Archreg:85 Phyreg lookup:341 value:0
Archreg:86 Phyreg lookup:342 value:0
Archreg:87 Phyreg lookup:343 value:0
Archreg:88 Phyreg lookup:344 value:0
Archreg:89 Phyreg lookup:345 value:0
Archreg:90 Phyreg lookup:346 value:0
Archreg:91 Phyreg lookup:347 value:0
Archreg:92 Phyreg lookup:348 value:0
Archreg:93 Phyreg lookup:349 value:0
Archreg:94 Phyreg lookup:350 value:0
Archreg:95 Phyreg lookup:351 value:0
Archreg:96 Phyreg lookup:352 value:0
Archreg:97 Phyreg lookup:353 value:0
Archreg:98 Phyreg lookup:354 value:0
Archreg:99 Phyreg lookup:355 value:0
Archreg:100 Phyreg lookup:356 value:0
Archreg:101 Phyreg lookup:357 value:0
Archreg:102 Phyreg lookup:358 value:0
Archreg:103 Phyreg lookup:359 value:0
Archreg:104 Phyreg lookup:360 value:0
Archreg:105 Phyreg lookup:361 value:0
Archreg:106 Phyreg lookup:362 value:0
Archreg:107 Phyreg lookup:363 value:0
Archreg:108 Phyreg lookup:364 value:0
Archreg:109 Phyreg lookup:365 value:0
Archreg:110 Phyreg lookup:366 value:0
Archreg:111 Phyreg lookup:367 value:0
Archreg:112 Phyreg lookup:368 value:0
Archreg:113 Phyreg lookup:369 value:0
Archreg:114 Phyreg lookup:370 value:0
Archreg:115 Phyreg lookup:371 value:0
Archreg:116 Phyreg lookup:372 value:0
Archreg:117 Phyreg lookup:373 value:0
Archreg:118 Phyreg lookup:374 value:0
Archreg:119 Phyreg lookup:375 value:0
Archreg:120 Phyreg lookup:376 value:0
Archreg:121 Phyreg lookup:377 value:0
Archreg:122 Phyreg lookup:378 value:0
Archreg:123 Phyreg lookup:379 value:0
Archreg:124 Phyreg lookup:380 value:0
Archreg:125 Phyreg lookup:381 value:0
Archreg:126 Phyreg lookup:382 value:0
Archreg:127 Phyreg lookup:383 value:0
Archreg:128 Phyreg lookup:384 value:0
Archreg:129 Phyreg lookup:385 value:0
Archreg:130 Phyreg lookup:386 value:0
Archreg:131 Phyreg lookup:387 value:0
Archreg:132 Phyreg lookup:388 value:0
Archreg:133 Phyreg lookup:389 value:0
Archreg:134 Phyreg lookup:390 value:0
Archreg:135 Phyreg lookup:391 value:0
Archreg:136 Phyreg lookup:392 value:0
Archreg:137 Phyreg lookup:393 value:0
Archreg:138 Phyreg lookup:394 value:0
Archreg:139 Phyreg lookup:395 value:0
Archreg:140 Phyreg lookup:396 value:0
Archreg:141 Phyreg lookup:397 value:0
Archreg:142 Phyreg lookup:398 value:0
Archreg:143 Phyreg lookup:399 value:0
Archreg:144 Phyreg lookup:400 value:0
Archreg:145 Phyreg lookup:401 value:0
Archreg:146 Phyreg lookup:402 value:0
Archreg:147 Phyreg lookup:403 value:0
Archreg:148 Phyreg lookup:404 value:0
Archreg:149 Phyreg lookup:405 value:0
Archreg:150 Phyreg lookup:406 value:0
Archreg:151 Phyreg lookup:407 value:0
Archreg:152 Phyreg lookup:408 value:0
Archreg:153 Phyreg lookup:409 value:0
Archreg:154 Phyreg lookup:410 value:0
Archreg:155 Phyreg lookup:411 value:0
Archreg:156 Phyreg lookup:412 value:0
Archreg:157 Phyreg lookup:413 value:0
Archreg:158 Phyreg lookup:414 value:0
Archreg:159 Phyreg lookup:415 value:0
*****CC REG mappings total TheISA::NumCCRegs:6
Archreg:0 Phyreg lookup:617 value:0
Archreg:1 Phyreg lookup:616 value:1
Archreg:2 Phyreg lookup:643 value:0
Archreg:3 Phyreg lookup:515 value:0
Archreg:4 Phyreg lookup:851 value:0
Archreg:5 Phyreg lookup:517 value:0
