gem5 Simulator System.  http://gem5.org
gem5 is copyrighted software; use the --copyright option for details.

gem5 compiled Feb  6 2015 15:52:27
gem5 started Feb  6 2015 15:53:08
gem5 executing on bigbird
command line: ./build/ARM/gem5.opt --debug-flags=Drain configs/example/se.py --cmd=/research/ljindal/445.gobmk --options=--quiet --mode gtp --input=/research/ljindal/nicklas4.tst --output=445.gobmk.stdout --errout=445.gobmk.stderr --num-cpus=1 --caches -I 10000000000 --cpu-type=arm_detailed
Global frequency set at 1000000000000 ticks per second
      0: system.cpu.isa: ISA system set to: 0 0x513b400
*****TRANSFORM totalNumRegs = 128+192+640
*********TRANSFORM REG_IDX after init is 960
0: system.remote_gdb.listener: listening for remote gdb #0 on port 7005
**** REAL SIMULATION ****
info: Entering event queue @ 0.  Starting simulation...
warn: CP14 unimplemented crn[0], opc1[6], crm[3], opc2[4]
warn: CP14 unimplemented crn[8], opc1[2], crm[9], opc2[4]
*****TRANSFORM going to call drain()
15270500: system.cpu: Draining...
15270500: system.cpu: Main CPU structures not drained.
15270500: system.cpu: Fetch not drained.
15270500: system.cpu: Decode not drained.
15270500: system.cpu: Rename not drained.
15270500: system.cpu.iew.lsq: Not drained, SQ not empty.
15270500: system.cpu.iew: 0: Skid buffer not empty.
15270500: system.cpu: IEW not drained.
15270500: system.cpu: Commit not drained.
15270500: system.cpu: CPU not drained
*****TRANSFORM DONE with drain()
15270500: system.cpu: Main CPU structures not drained.
15270500: system.cpu: Fetch not drained.
15270500: system.cpu: Decode not drained.
15270500: system.cpu: Rename not drained.
15270500: system.cpu.iew.lsq: Not drained, SQ not empty.
15270500: system.cpu.iew: 0: Skid buffer not empty.
15270500: system.cpu: IEW not drained.
15270500: system.cpu: Commit not drained.
15271000: system.cpu: Main CPU structures not drained.
15271000: system.cpu: Fetch not drained.
15271000: system.cpu: Decode not drained.
15271000: system.cpu: Rename not drained.
15271000: system.cpu.iew.lsq: Not drained, SQ not empty.
15271000: system.cpu.iew: 0: Skid buffer not empty.
15271000: system.cpu: IEW not drained.
15271000: system.cpu: Commit not drained.
15271500: system.cpu: Main CPU structures not drained.
15271500: system.cpu: Fetch not drained.
15271500: system.cpu: Decode not drained.
15271500: system.cpu: Rename not drained.
15271500: system.cpu.iew.lsq: Not drained, SQ not empty.
15271500: system.cpu.iew: 0: Skid buffer not empty.
15271500: system.cpu: IEW not drained.
15271500: system.cpu: Commit not drained.
15272000: system.cpu: Main CPU structures not drained.
15272000: system.cpu: Fetch not drained.
15272000: system.cpu: Decode not drained.
15272000: system.cpu: Rename not drained.
15272000: system.cpu.iew.lsq: Not drained, SQ not empty.
15272000: system.cpu.iew: 0: Skid buffer not empty.
15272000: system.cpu: IEW not drained.
15272000: system.cpu: Commit not drained.
15272500: system.cpu: Main CPU structures not drained.
15272500: system.cpu: Fetch not drained.
15272500: system.cpu: Decode not drained.
15272500: system.cpu: Rename not drained.
15272500: system.cpu.iew.lsq: Not drained, SQ not empty.
15272500: system.cpu.iew: 0: Skid buffer not empty.
15272500: system.cpu: IEW not drained.
15272500: system.cpu: Commit not drained.
15273000: system.cpu: Main CPU structures not drained.
15273000: system.cpu: Fetch not drained.
15273000: system.cpu: Decode not drained.
15273000: system.cpu: Rename not drained.
15273000: system.cpu.iew.lsq: Not drained, SQ not empty.
15273000: system.cpu.iew: 0: Skid buffer not empty.
15273000: system.cpu: IEW not drained.
15273000: system.cpu: Commit not drained.
15273500: system.cpu: Main CPU structures not drained.
15273500: system.cpu: Fetch not drained.
15273500: system.cpu: Decode not drained.
15273500: system.cpu: Rename not drained.
15273500: system.cpu.iew.lsq: Not drained, SQ not empty.
15273500: system.cpu.iew: 0: Skid buffer not empty.
15273500: system.cpu: IEW not drained.
15273500: system.cpu: Commit not drained.
15274000: system.cpu: Main CPU structures not drained.
15274000: system.cpu: Fetch not drained.
15274000: system.cpu: Decode not drained.
15274000: system.cpu: Rename not drained.
15274000: system.cpu.iew.lsq: Not drained, SQ not empty.
15274000: system.cpu.iew: 0: Skid buffer not empty.
15274000: system.cpu: IEW not drained.
15274000: system.cpu: Commit not drained.
15274500: system.cpu: Main CPU structures not drained.
15274500: system.cpu: Fetch not drained.
15274500: system.cpu: Decode not drained.
15274500: system.cpu: Rename not drained.
15274500: system.cpu.iew.lsq: Not drained, SQ not empty.
15274500: system.cpu: IEW not drained.
15274500: system.cpu: Commit not drained.
15275000: system.cpu: Main CPU structures not drained.
15275000: system.cpu: Fetch not drained.
15275000: system.cpu: Decode not drained.
15275000: system.cpu: Rename not drained.
15275000: system.cpu.iew.lsq: Not drained, SQ not empty.
15275000: system.cpu: IEW not drained.
15275000: system.cpu: Commit not drained.
15275500: system.cpu: Main CPU structures not drained.
15275500: system.cpu: Fetch not drained.
15275500: system.cpu: Decode not drained.
15275500: system.cpu: Rename not drained.
15275500: system.cpu.iew.lsq: Not drained, SQ not empty.
15275500: system.cpu: IEW not drained.
15275500: system.cpu: Commit not drained.
15276000: system.cpu: Main CPU structures not drained.
15276000: system.cpu: Fetch not drained.
15276000: system.cpu: Decode not drained.
15276000: system.cpu: Rename not drained.
15276000: system.cpu.iew.lsq: Not drained, SQ not empty.
15276000: system.cpu: IEW not drained.
15276000: system.cpu: Commit not drained.
15276500: system.cpu: Main CPU structures not drained.
15276500: system.cpu: Fetch not drained.
15276500: system.cpu: Decode not drained.
15276500: system.cpu: Rename not drained.
15276500: system.cpu.iew.lsq: Not drained, SQ not empty.
15276500: system.cpu: IEW not drained.
15276500: system.cpu: Commit not drained.
15277000: system.cpu: Main CPU structures not drained.
15277000: system.cpu: Fetch not drained.
15277000: system.cpu: Rename not drained.
15277000: system.cpu.iew.lsq: Not drained, SQ not empty.
15277000: system.cpu: IEW not drained.
15277000: system.cpu: Commit not drained.
15277500: system.cpu.commit: Draining: 0:(0xba5d4=>0xba5d8).(0=>1)
15277500: system.cpu.fetch: 0: Thread drained.
15277500: system.cpu: Main CPU structures not drained.
15277500: system.cpu: Fetch not drained.
15277500: system.cpu: Rename not drained.
15277500: system.cpu.iew.lsq: Not drained, SQ not empty.
15277500: system.cpu: IEW not drained.
15277500: system.cpu: Commit not drained.
15278000: system.cpu: Main CPU structures not drained.
15278000: system.cpu: Fetch not drained.
15278000: system.cpu: Rename not drained.
15278000: system.cpu.iew.lsq: Not drained, SQ not empty.
15278000: system.cpu: IEW not drained.
15278000: system.cpu: Commit not drained.
15278500: system.cpu: Fetch not drained.
15278500: system.cpu: Rename not drained.
15278500: system.cpu.iew.lsq: Not drained, SQ not empty.
15278500: system.cpu: IEW not drained.
15279000: system.cpu.iew.lsq: Not drained, SQ not empty.
15279000: system.cpu: IEW not drained.
15279500: system.cpu.iew.lsq: Not drained, SQ not empty.
15279500: system.cpu: IEW not drained.
15280000: system.cpu.iew.lsq: Not drained, SQ not empty.
15280000: system.cpu: IEW not drained.
15280500: system.cpu.iew.lsq: Not drained, SQ not empty.
15280500: system.cpu: IEW not drained.
15281000: system.cpu.iew.lsq: Not drained, SQ not empty.
15281000: system.cpu: IEW not drained.
15281500: system.cpu.iew.lsq: Not drained, SQ not empty.
15281500: system.cpu: IEW not drained.
15282000: system.cpu.iew.lsq: Not drained, SQ not empty.
15282000: system.cpu: IEW not drained.
15282500: system.cpu.iew.lsq: Not drained, SQ not empty.
15282500: system.cpu: IEW not drained.
15283000: system.cpu.iew.lsq: Not drained, SQ not empty.
15283000: system.cpu: IEW not drained.
15283500: system.cpu.iew.lsq: Not drained, SQ not empty.
15283500: system.cpu: IEW not drained.
15284000: system.cpu.iew.lsq: Not drained, SQ not empty.
15284000: system.cpu: IEW not drained.
15315500: system.cpu.iew.lsq: Not drained, SQ not empty.
15315500: system.cpu: IEW not drained.
15316000: system.cpu.iew.lsq: Not drained, SQ not empty.
15316000: system.cpu: IEW not drained.
15316500: system.cpu.iew.lsq: Not drained, SQ not empty.
15316500: system.cpu: IEW not drained.
15317000: system.cpu.iew.lsq: Not drained, SQ not empty.
15317000: system.cpu: IEW not drained.
15317500: system.cpu.iew.lsq: Not drained, SQ not empty.
15317500: system.cpu: IEW not drained.
15318000: system.cpu.iew.lsq: Not drained, SQ not empty.
15318000: system.cpu: IEW not drained.
15318500: system.cpu.iew.lsq: Not drained, SQ not empty.
15318500: system.cpu: IEW not drained.
15319000: system.cpu.iew.lsq: Not drained, SQ not empty.
15319000: system.cpu: IEW not drained.
15319500: system.cpu.iew.lsq: Not drained, SQ not empty.
15319500: system.cpu: IEW not drained.
15320000: system.cpu.iew.lsq: Not drained, SQ not empty.
15320000: system.cpu: IEW not drained.
15320500: system.cpu.iew.lsq: Not drained, SQ not empty.
15320500: system.cpu: IEW not drained.
*****TRANSFORM going to print the reg mappings now!
*****INT REG mappings total TheISA::NumIntRegs:43
Archreg:0 Phyreg lookup:6 value:5180228
Archreg:1 Phyreg lookup:54 value:0
Archreg:2 Phyreg lookup:109 value:177208
Archreg:3 Phyreg lookup:1 value:5181580
Archreg:4 Phyreg lookup:108 value:0
Archreg:5 Phyreg lookup:57 value:4291532
Archreg:6 Phyreg lookup:93 value:5360388
Archreg:7 Phyreg lookup:94 value:4970092
Archreg:8 Phyreg lookup:62 value:0
Archreg:9 Phyreg lookup:81 value:3755008
Archreg:10 Phyreg lookup:89 value:5536516
Archreg:11 Phyreg lookup:78 value:4
Archreg:12 Phyreg lookup:91 value:0
Archreg:13 Phyreg lookup:12 value:3204447080
Archreg:14 Phyreg lookup:87 value:557335
Archreg:15 Phyreg lookup:67 value:711663
Archreg:16 Phyreg lookup:16 value:0
Archreg:17 Phyreg lookup:17 value:0
Archreg:18 Phyreg lookup:18 value:0
Archreg:19 Phyreg lookup:19 value:0
Archreg:20 Phyreg lookup:20 value:0
Archreg:21 Phyreg lookup:21 value:0
Archreg:22 Phyreg lookup:22 value:0
Archreg:23 Phyreg lookup:23 value:0
Archreg:24 Phyreg lookup:24 value:0
Archreg:25 Phyreg lookup:25 value:0
Archreg:26 Phyreg lookup:26 value:0
Archreg:27 Phyreg lookup:27 value:0
Archreg:28 Phyreg lookup:28 value:0
Archreg:29 Phyreg lookup:29 value:0
Archreg:30 Phyreg lookup:30 value:0
Archreg:31 Phyreg lookup:31 value:0
Archreg:32 Phyreg lookup:32 value:0
Archreg:33 Phyreg lookup:33 value:0
Archreg:34 Phyreg lookup:34 value:0
Archreg:35 Phyreg lookup:5 value:767099
Archreg:36 Phyreg lookup:73 value:711663
Archreg:37 Phyreg lookup:37 value:0
Archreg:38 Phyreg lookup:38 value:0
Archreg:39 Phyreg lookup:39 value:0
Archreg:40 Phyreg lookup:40 value:0
Archreg:41 Phyreg lookup:41 value:0
Archreg:42 Phyreg lookup:42 value:0
*****FLOAT REG mappings total TheISA::NumFloatRegs:160
Archreg:0 Phyreg lookup:128 value:0
Archreg:1 Phyreg lookup:129 value:0
Archreg:2 Phyreg lookup:130 value:0
Archreg:3 Phyreg lookup:131 value:0
Archreg:4 Phyreg lookup:132 value:0
Archreg:5 Phyreg lookup:133 value:0
Archreg:6 Phyreg lookup:134 value:0
Archreg:7 Phyreg lookup:135 value:0
Archreg:8 Phyreg lookup:136 value:0
Archreg:9 Phyreg lookup:137 value:0
Archreg:10 Phyreg lookup:138 value:0
Archreg:11 Phyreg lookup:139 value:0
Archreg:12 Phyreg lookup:140 value:0
Archreg:13 Phyreg lookup:141 value:0
Archreg:14 Phyreg lookup:142 value:0
Archreg:15 Phyreg lookup:143 value:0
Archreg:16 Phyreg lookup:144 value:0
Archreg:17 Phyreg lookup:145 value:0
Archreg:18 Phyreg lookup:146 value:0
Archreg:19 Phyreg lookup:147 value:0
Archreg:20 Phyreg lookup:148 value:0
Archreg:21 Phyreg lookup:149 value:0
Archreg:22 Phyreg lookup:150 value:0
Archreg:23 Phyreg lookup:151 value:0
Archreg:24 Phyreg lookup:152 value:0
Archreg:25 Phyreg lookup:153 value:0
Archreg:26 Phyreg lookup:154 value:0
Archreg:27 Phyreg lookup:155 value:0
Archreg:28 Phyreg lookup:156 value:0
Archreg:29 Phyreg lookup:157 value:0
Archreg:30 Phyreg lookup:158 value:0
Archreg:31 Phyreg lookup:159 value:0
Archreg:32 Phyreg lookup:160 value:0
Archreg:33 Phyreg lookup:161 value:0
Archreg:34 Phyreg lookup:162 value:0
Archreg:35 Phyreg lookup:163 value:0
Archreg:36 Phyreg lookup:164 value:0
Archreg:37 Phyreg lookup:165 value:0
Archreg:38 Phyreg lookup:166 value:0
Archreg:39 Phyreg lookup:167 value:0
Archreg:40 Phyreg lookup:168 value:0
Archreg:41 Phyreg lookup:169 value:0
Archreg:42 Phyreg lookup:170 value:0
Archreg:43 Phyreg lookup:171 value:0
Archreg:44 Phyreg lookup:172 value:0
Archreg:45 Phyreg lookup:173 value:0
Archreg:46 Phyreg lookup:174 value:0
Archreg:47 Phyreg lookup:175 value:0
Archreg:48 Phyreg lookup:176 value:0
Archreg:49 Phyreg lookup:177 value:0
Archreg:50 Phyreg lookup:178 value:0
Archreg:51 Phyreg lookup:179 value:0
Archreg:52 Phyreg lookup:180 value:0
Archreg:53 Phyreg lookup:181 value:0
Archreg:54 Phyreg lookup:182 value:0
Archreg:55 Phyreg lookup:183 value:0
Archreg:56 Phyreg lookup:184 value:0
Archreg:57 Phyreg lookup:185 value:0
Archreg:58 Phyreg lookup:186 value:0
Archreg:59 Phyreg lookup:187 value:0
Archreg:60 Phyreg lookup:188 value:0
Archreg:61 Phyreg lookup:189 value:0
Archreg:62 Phyreg lookup:190 value:0
Archreg:63 Phyreg lookup:191 value:0
Archreg:64 Phyreg lookup:192 value:0
Archreg:65 Phyreg lookup:193 value:0
Archreg:66 Phyreg lookup:194 value:0
Archreg:67 Phyreg lookup:195 value:0
Archreg:68 Phyreg lookup:196 value:0
Archreg:69 Phyreg lookup:197 value:0
Archreg:70 Phyreg lookup:198 value:0
Archreg:71 Phyreg lookup:199 value:0
Archreg:72 Phyreg lookup:200 value:0
Archreg:73 Phyreg lookup:201 value:0
Archreg:74 Phyreg lookup:202 value:0
Archreg:75 Phyreg lookup:203 value:0
Archreg:76 Phyreg lookup:204 value:0
Archreg:77 Phyreg lookup:205 value:0
Archreg:78 Phyreg lookup:206 value:0
Archreg:79 Phyreg lookup:207 value:0
Archreg:80 Phyreg lookup:208 value:0
Archreg:81 Phyreg lookup:209 value:0
Archreg:82 Phyreg lookup:210 value:0
Archreg:83 Phyreg lookup:211 value:0
Archreg:84 Phyreg lookup:212 value:0
Archreg:85 Phyreg lookup:213 value:0
Archreg:86 Phyreg lookup:214 value:0
Archreg:87 Phyreg lookup:215 value:0
Archreg:88 Phyreg lookup:216 value:0
Archreg:89 Phyreg lookup:217 value:0
Archreg:90 Phyreg lookup:218 value:0
Archreg:91 Phyreg lookup:219 value:0
Archreg:92 Phyreg lookup:220 value:0
Archreg:93 Phyreg lookup:221 value:0
Archreg:94 Phyreg lookup:222 value:0
Archreg:95 Phyreg lookup:223 value:0
Archreg:96 Phyreg lookup:224 value:0
Archreg:97 Phyreg lookup:225 value:0
Archreg:98 Phyreg lookup:226 value:0
Archreg:99 Phyreg lookup:227 value:0
Archreg:100 Phyreg lookup:228 value:0
Archreg:101 Phyreg lookup:229 value:0
Archreg:102 Phyreg lookup:230 value:0
Archreg:103 Phyreg lookup:231 value:0
Archreg:104 Phyreg lookup:232 value:0
Archreg:105 Phyreg lookup:233 value:0
Archreg:106 Phyreg lookup:234 value:0
Archreg:107 Phyreg lookup:235 value:0
Archreg:108 Phyreg lookup:236 value:0
Archreg:109 Phyreg lookup:237 value:0
Archreg:110 Phyreg lookup:238 value:0
Archreg:111 Phyreg lookup:239 value:0
Archreg:112 Phyreg lookup:240 value:0
Archreg:113 Phyreg lookup:241 value:0
Archreg:114 Phyreg lookup:242 value:0
Archreg:115 Phyreg lookup:243 value:0
Archreg:116 Phyreg lookup:244 value:0
Archreg:117 Phyreg lookup:245 value:0
Archreg:118 Phyreg lookup:246 value:0
Archreg:119 Phyreg lookup:247 value:0
Archreg:120 Phyreg lookup:248 value:0
Archreg:121 Phyreg lookup:249 value:0
Archreg:122 Phyreg lookup:250 value:0
Archreg:123 Phyreg lookup:251 value:0
Archreg:124 Phyreg lookup:252 value:0
Archreg:125 Phyreg lookup:253 value:0
Archreg:126 Phyreg lookup:254 value:0
Archreg:127 Phyreg lookup:255 value:0
Archreg:128 Phyreg lookup:256 value:0
Archreg:129 Phyreg lookup:257 value:0
Archreg:130 Phyreg lookup:258 value:0
Archreg:131 Phyreg lookup:259 value:0
Archreg:132 Phyreg lookup:260 value:0
Archreg:133 Phyreg lookup:261 value:0
Archreg:134 Phyreg lookup:262 value:0
Archreg:135 Phyreg lookup:263 value:0
Archreg:136 Phyreg lookup:264 value:0
Archreg:137 Phyreg lookup:265 value:0
Archreg:138 Phyreg lookup:266 value:0
Archreg:139 Phyreg lookup:267 value:0
Archreg:140 Phyreg lookup:268 value:0
Archreg:141 Phyreg lookup:269 value:0
Archreg:142 Phyreg lookup:270 value:0
Archreg:143 Phyreg lookup:271 value:0
Archreg:144 Phyreg lookup:272 value:0
Archreg:145 Phyreg lookup:273 value:0
Archreg:146 Phyreg lookup:274 value:0
Archreg:147 Phyreg lookup:275 value:0
Archreg:148 Phyreg lookup:276 value:0
Archreg:149 Phyreg lookup:277 value:0
Archreg:150 Phyreg lookup:278 value:0
Archreg:151 Phyreg lookup:279 value:0
Archreg:152 Phyreg lookup:280 value:0
Archreg:153 Phyreg lookup:281 value:0
Archreg:154 Phyreg lookup:282 value:0
Archreg:155 Phyreg lookup:283 value:0
Archreg:156 Phyreg lookup:284 value:0
Archreg:157 Phyreg lookup:285 value:0
Archreg:158 Phyreg lookup:286 value:0
Archreg:159 Phyreg lookup:287 value:0
*****CC REG mappings total TheISA::NumCCRegs:6
Archreg:0 Phyreg lookup:759 value:0
Archreg:1 Phyreg lookup:765 value:1
Archreg:2 Phyreg lookup:698 value:0
Archreg:3 Phyreg lookup:323 value:0
Archreg:4 Phyreg lookup:847 value:0
Archreg:5 Phyreg lookup:325 value:0
restrict_intreg_mapping BEFORE numFreeEntries:32
restrict_intreg_mapping: Skipping phy:6 against regfile->numIntPhysRegs():128 with tf_regfile_scale_factor:2
restrict_intreg_mapping: Skipping phy:54 against regfile->numIntPhysRegs():128 with tf_regfile_scale_factor:2
restrict_intreg_mapping: REMAPPING phy:109 against regfile->numIntPhysRegs():128 with tf_regfile_scale_factor:2
before numFreeRegs:85
after numFreeRegs:85
ACCEPTING new phy:55old phy:109
restrict_intreg_mapping: Skipping phy:1 against regfile->numIntPhysRegs():128 with tf_regfile_scale_factor:2
restrict_intreg_mapping: REMAPPING phy:108 against regfile->numIntPhysRegs():128 with tf_regfile_scale_factor:2
before numFreeRegs:85
after numFreeRegs:85
REJECTING new phy:120old phy:108
before numFreeRegs:85
after numFreeRegs:85
REJECTING new phy:71old phy:120
before numFreeRegs:85
after numFreeRegs:85
REJECTING new phy:115old phy:71
before numFreeRegs:85
after numFreeRegs:85
ACCEPTING new phy:64old phy:115
restrict_intreg_mapping: Skipping phy:57 against regfile->numIntPhysRegs():128 with tf_regfile_scale_factor:2
restrict_intreg_mapping: REMAPPING phy:93 against regfile->numIntPhysRegs():128 with tf_regfile_scale_factor:2
before numFreeRegs:85
after numFreeRegs:85
ACCEPTING new phy:49old phy:93
restrict_intreg_mapping: REMAPPING phy:94 against regfile->numIntPhysRegs():128 with tf_regfile_scale_factor:2
before numFreeRegs:85
after numFreeRegs:85
ACCEPTING new phy:61old phy:94
restrict_intreg_mapping: Skipping phy:62 against regfile->numIntPhysRegs():128 with tf_regfile_scale_factor:2
restrict_intreg_mapping: REMAPPING phy:81 against regfile->numIntPhysRegs():128 with tf_regfile_scale_factor:2
before numFreeRegs:85
after numFreeRegs:85
REJECTING new phy:105old phy:81
before numFreeRegs:85
after numFreeRegs:85
ACCEPTING new phy:46old phy:105
restrict_intreg_mapping: REMAPPING phy:89 against regfile->numIntPhysRegs():128 with tf_regfile_scale_factor:2
before numFreeRegs:85
after numFreeRegs:85
ACCEPTING new phy:10old phy:89
restrict_intreg_mapping: REMAPPING phy:78 against regfile->numIntPhysRegs():128 with tf_regfile_scale_factor:2
before numFreeRegs:85
after numFreeRegs:85
REJECTING new phy:75old phy:78
before numFreeRegs:85
after numFreeRegs:85
REJECTING new phy:95old phy:75
before numFreeRegs:85
after numFreeRegs:85
ACCEPTING new phy:4old phy:95
restrict_intreg_mapping: REMAPPING phy:91 against regfile->numIntPhysRegs():128 with tf_regfile_scale_factor:2
before numFreeRegs:85
after numFreeRegs:85
REJECTING new phy:100old phy:91
before numFreeRegs:85
after numFreeRegs:85
REJECTING new phy:107old phy:100
before numFreeRegs:85
after numFreeRegs:85
REJECTING new phy:82old phy:107
before numFreeRegs:85
after numFreeRegs:85
REJECTING new phy:124old phy:82
before numFreeRegs:85
after numFreeRegs:85
ACCEPTING new phy:59old phy:124
restrict_intreg_mapping: Skipping phy:12 against regfile->numIntPhysRegs():128 with tf_regfile_scale_factor:2
restrict_intreg_mapping: REMAPPING phy:87 against regfile->numIntPhysRegs():128 with tf_regfile_scale_factor:2
before numFreeRegs:85
after numFreeRegs:85
REJECTING new phy:117old phy:87
before numFreeRegs:85
after numFreeRegs:85
REJECTING new phy:118old phy:117
before numFreeRegs:85
after numFreeRegs:85
REJECTING new phy:99old phy:118
before numFreeRegs:85
after numFreeRegs:85
ACCEPTING new phy:63old phy:99
restrict_intreg_mapping: REMAPPING phy:67 against regfile->numIntPhysRegs():128 with tf_regfile_scale_factor:2
before numFreeRegs:85
after numFreeRegs:85
REJECTING new phy:119old phy:67
before numFreeRegs:85
after numFreeRegs:85
REJECTING new phy:123old phy:119
before numFreeRegs:85
after numFreeRegs:85
ACCEPTING new phy:51old phy:123
restrict_intreg_mapping: Skipping phy:16 against regfile->numIntPhysRegs():128 with tf_regfile_scale_factor:2
restrict_intreg_mapping: Skipping phy:17 against regfile->numIntPhysRegs():128 with tf_regfile_scale_factor:2
restrict_intreg_mapping: Skipping phy:18 against regfile->numIntPhysRegs():128 with tf_regfile_scale_factor:2
restrict_intreg_mapping: Skipping phy:19 against regfile->numIntPhysRegs():128 with tf_regfile_scale_factor:2
restrict_intreg_mapping: Skipping phy:20 against regfile->numIntPhysRegs():128 with tf_regfile_scale_factor:2
restrict_intreg_mapping: Skipping phy:21 against regfile->numIntPhysRegs():128 with tf_regfile_scale_factor:2
restrict_intreg_mapping: Skipping phy:22 against regfile->numIntPhysRegs():128 with tf_regfile_scale_factor:2
restrict_intreg_mapping: Skipping phy:23 against regfile->numIntPhysRegs():128 with tf_regfile_scale_factor:2
restrict_intreg_mapping: Skipping phy:24 against regfile->numIntPhysRegs():128 with tf_regfile_scale_factor:2
restrict_intreg_mapping: Skipping phy:25 against regfile->numIntPhysRegs():128 with tf_regfile_scale_factor:2
restrict_intreg_mapping: Skipping phy:26 against regfile->numIntPhysRegs():128 with tf_regfile_scale_factor:2
restrict_intreg_mapping: Skipping phy:27 against regfile->numIntPhysRegs():128 with tf_regfile_scale_factor:2
restrict_intreg_mapping: Skipping phy:28 against regfile->numIntPhysRegs():128 with tf_regfile_scale_factor:2
restrict_intreg_mapping: Skipping phy:29 against regfile->numIntPhysRegs():128 with tf_regfile_scale_factor:2
restrict_intreg_mapping: Skipping phy:30 against regfile->numIntPhysRegs():128 with tf_regfile_scale_factor:2
restrict_intreg_mapping: Skipping phy:31 against regfile->numIntPhysRegs():128 with tf_regfile_scale_factor:2
restrict_intreg_mapping: Skipping phy:32 against regfile->numIntPhysRegs():128 with tf_regfile_scale_factor:2
restrict_intreg_mapping: Skipping phy:33 against regfile->numIntPhysRegs():128 with tf_regfile_scale_factor:2
restrict_intreg_mapping: Skipping phy:34 against regfile->numIntPhysRegs():128 with tf_regfile_scale_factor:2
restrict_intreg_mapping: Skipping phy:5 against regfile->numIntPhysRegs():128 with tf_regfile_scale_factor:2
restrict_intreg_mapping: REMAPPING phy:73 against regfile->numIntPhysRegs():128 with tf_regfile_scale_factor:2
before numFreeRegs:85
after numFreeRegs:85
REJECTING new phy:90old phy:73
before numFreeRegs:85
after numFreeRegs:85
ACCEPTING new phy:43old phy:90
restrict_intreg_mapping: Skipping phy:37 against regfile->numIntPhysRegs():128 with tf_regfile_scale_factor:2
restrict_intreg_mapping: Skipping phy:38 against regfile->numIntPhysRegs():128 with tf_regfile_scale_factor:2
restrict_intreg_mapping: Skipping phy:39 against regfile->numIntPhysRegs():128 with tf_regfile_scale_factor:2
restrict_intreg_mapping: Skipping phy:40 against regfile->numIntPhysRegs():128 with tf_regfile_scale_factor:2
restrict_intreg_mapping: Skipping phy:41 against regfile->numIntPhysRegs():128 with tf_regfile_scale_factor:2
restrict_intreg_mapping: Skipping phy:42 against regfile->numIntPhysRegs():128 with tf_regfile_scale_factor:2
restrict_intreg_mapping AFTER numFreeEntries:32
restrict_ccreg_mapping BEFORE numFreeEntries:32
restrict_ccreg_mapping: REMAPPING phy:759 against regFile->numIntPhysRegs() + regFile->numFloatPhysRegs()+ regfile->numCCPhysRegs():960 with tf_regfile_scale_factor:2
before numFreeRegs:634
after numFreeRegs:634
REJECTING new phy:684old phy:759
before numFreeRegs:634
after numFreeRegs:634
REJECTING new phy:688old phy:684
before numFreeRegs:634
after numFreeRegs:634
REJECTING new phy:729old phy:688
before numFreeRegs:634
after numFreeRegs:634
REJECTING new phy:721old phy:729
before numFreeRegs:634
after numFreeRegs:634
REJECTING new phy:711old phy:721
before numFreeRegs:634
after numFreeRegs:634
REJECTING new phy:702old phy:711
before numFreeRegs:634
after numFreeRegs:634
REJECTING new phy:700old phy:702
before numFreeRegs:634
after numFreeRegs:634
REJECTING new phy:715old phy:700
before numFreeRegs:634
after numFreeRegs:634
REJECTING new phy:707old phy:715
before numFreeRegs:634
after numFreeRegs:634
REJECTING new phy:706old phy:707
before numFreeRegs:634
after numFreeRegs:634
REJECTING new phy:720old phy:706
before numFreeRegs:634
after numFreeRegs:634
REJECTING new phy:719old phy:720
before numFreeRegs:634
after numFreeRegs:634
ACCEPTING new phy:607old phy:719
restrict_ccreg_mapping: REMAPPING phy:765 against regFile->numIntPhysRegs() + regFile->numFloatPhysRegs()+ regfile->numCCPhysRegs():960 with tf_regfile_scale_factor:2
before numFreeRegs:634
after numFreeRegs:634
ACCEPTING new phy:594old phy:765
restrict_ccreg_mapping: REMAPPING phy:698 against regFile->numIntPhysRegs() + regFile->numFloatPhysRegs()+ regfile->numCCPhysRegs():960 with tf_regfile_scale_factor:2
before numFreeRegs:634
after numFreeRegs:634
REJECTING new phy:660old phy:698
before numFreeRegs:634
after numFreeRegs:634
ACCEPTING new phy:580old phy:660
restrict_ccreg_mapping: Skipping phy:323 against regFile->numIntPhysRegs() + regFile->numFloatPhysRegs()+ regfile->numCCPhysRegs():960 with tf_regfile_scale_factor:2
restrict_ccreg_mapping: REMAPPING phy:847 against regFile->numIntPhysRegs() + regFile->numFloatPhysRegs()+ regfile->numCCPhysRegs():960 with tf_regfile_scale_factor:2
before numFreeRegs:634
after numFreeRegs:634
ACCEPTING new phy:586old phy:847
restrict_ccreg_mapping: Skipping phy:325 against regFile->numIntPhysRegs() + regFile->numFloatPhysRegs()+ regfile->numCCPhysRegs():960 with tf_regfile_scale_factor:2
restrict_ccreg_mapping AFTER numFreeEntries:32
*****TRANSFORM going to print the reg mappings now!
*****INT REG mappings total TheISA::NumIntRegs:43
Archreg:0 Phyreg lookup:6 value:5180228
Archreg:1 Phyreg lookup:54 value:0
Archreg:2 Phyreg lookup:55 value:177208
Archreg:3 Phyreg lookup:1 value:5181580
Archreg:4 Phyreg lookup:64 value:0
Archreg:5 Phyreg lookup:57 value:4291532
Archreg:6 Phyreg lookup:49 value:5360388
Archreg:7 Phyreg lookup:61 value:4970092
Archreg:8 Phyreg lookup:62 value:0
Archreg:9 Phyreg lookup:46 value:3755008
Archreg:10 Phyreg lookup:10 value:5536516
Archreg:11 Phyreg lookup:4 value:4
Archreg:12 Phyreg lookup:59 value:0
Archreg:13 Phyreg lookup:12 value:3204447080
Archreg:14 Phyreg lookup:63 value:557335
Archreg:15 Phyreg lookup:51 value:711663
Archreg:16 Phyreg lookup:16 value:0
Archreg:17 Phyreg lookup:17 value:0
Archreg:18 Phyreg lookup:18 value:0
Archreg:19 Phyreg lookup:19 value:0
Archreg:20 Phyreg lookup:20 value:0
Archreg:21 Phyreg lookup:21 value:0
Archreg:22 Phyreg lookup:22 value:0
Archreg:23 Phyreg lookup:23 value:0
Archreg:24 Phyreg lookup:24 value:0
Archreg:25 Phyreg lookup:25 value:0
Archreg:26 Phyreg lookup:26 value:0
Archreg:27 Phyreg lookup:27 value:0
Archreg:28 Phyreg lookup:28 value:0
Archreg:29 Phyreg lookup:29 value:0
Archreg:30 Phyreg lookup:30 value:0
Archreg:31 Phyreg lookup:31 value:0
Archreg:32 Phyreg lookup:32 value:0
Archreg:33 Phyreg lookup:33 value:0
Archreg:34 Phyreg lookup:34 value:0
Archreg:35 Phyreg lookup:5 value:767099
Archreg:36 Phyreg lookup:43 value:711663
Archreg:37 Phyreg lookup:37 value:0
Archreg:38 Phyreg lookup:38 value:0
Archreg:39 Phyreg lookup:39 value:0
Archreg:40 Phyreg lookup:40 value:0
Archreg:41 Phyreg lookup:41 value:0
Archreg:42 Phyreg lookup:42 value:0
*****FLOAT REG mappings total TheISA::NumFloatRegs:160
Archreg:0 Phyreg lookup:128 value:0
Archreg:1 Phyreg lookup:129 value:0
Archreg:2 Phyreg lookup:130 value:0
Archreg:3 Phyreg lookup:131 value:0
Archreg:4 Phyreg lookup:132 value:0
Archreg:5 Phyreg lookup:133 value:0
Archreg:6 Phyreg lookup:134 value:0
Archreg:7 Phyreg lookup:135 value:0
Archreg:8 Phyreg lookup:136 value:0
Archreg:9 Phyreg lookup:137 value:0
Archreg:10 Phyreg lookup:138 value:0
Archreg:11 Phyreg lookup:139 value:0
Archreg:12 Phyreg lookup:140 value:0
Archreg:13 Phyreg lookup:141 value:0
Archreg:14 Phyreg lookup:142 value:0
Archreg:15 Phyreg lookup:143 value:0
Archreg:16 Phyreg lookup:144 value:0
Archreg:17 Phyreg lookup:145 value:0
Archreg:18 Phyreg lookup:146 value:0
Archreg:19 Phyreg lookup:147 value:0
Archreg:20 Phyreg lookup:148 value:0
Archreg:21 Phyreg lookup:149 value:0
Archreg:22 Phyreg lookup:150 value:0
Archreg:23 Phyreg lookup:151 value:0
Archreg:24 Phyreg lookup:152 value:0
Archreg:25 Phyreg lookup:153 value:0
Archreg:26 Phyreg lookup:154 value:0
Archreg:27 Phyreg lookup:155 value:0
Archreg:28 Phyreg lookup:156 value:0
Archreg:29 Phyreg lookup:157 value:0
Archreg:30 Phyreg lookup:158 value:0
Archreg:31 Phyreg lookup:159 value:0
Archreg:32 Phyreg lookup:160 value:0
Archreg:33 Phyreg lookup:161 value:0
Archreg:34 Phyreg lookup:162 value:0
Archreg:35 Phyreg lookup:163 value:0
Archreg:36 Phyreg lookup:164 value:0
Archreg:37 Phyreg lookup:165 value:0
Archreg:38 Phyreg lookup:166 value:0
Archreg:39 Phyreg lookup:167 value:0
Archreg:40 Phyreg lookup:168 value:0
Archreg:41 Phyreg lookup:169 value:0
Archreg:42 Phyreg lookup:170 value:0
Archreg:43 Phyreg lookup:171 value:0
Archreg:44 Phyreg lookup:172 value:0
Archreg:45 Phyreg lookup:173 value:0
Archreg:46 Phyreg lookup:174 value:0
Archreg:47 Phyreg lookup:175 value:0
Archreg:48 Phyreg lookup:176 value:0
Archreg:49 Phyreg lookup:177 value:0
Archreg:50 Phyreg lookup:178 value:0
Archreg:51 Phyreg lookup:179 value:0
Archreg:52 Phyreg lookup:180 value:0
Archreg:53 Phyreg lookup:181 value:0
Archreg:54 Phyreg lookup:182 value:0
Archreg:55 Phyreg lookup:183 value:0
Archreg:56 Phyreg lookup:184 value:0
Archreg:57 Phyreg lookup:185 value:0
Archreg:58 Phyreg lookup:186 value:0
Archreg:59 Phyreg lookup:187 value:0
Archreg:60 Phyreg lookup:188 value:0
Archreg:61 Phyreg lookup:189 value:0
Archreg:62 Phyreg lookup:190 value:0
Archreg:63 Phyreg lookup:191 value:0
Archreg:64 Phyreg lookup:192 value:0
Archreg:65 Phyreg lookup:193 value:0
Archreg:66 Phyreg lookup:194 value:0
Archreg:67 Phyreg lookup:195 value:0
Archreg:68 Phyreg lookup:196 value:0
Archreg:69 Phyreg lookup:197 value:0
Archreg:70 Phyreg lookup:198 value:0
Archreg:71 Phyreg lookup:199 value:0
Archreg:72 Phyreg lookup:200 value:0
Archreg:73 Phyreg lookup:201 value:0
Archreg:74 Phyreg lookup:202 value:0
Archreg:75 Phyreg lookup:203 value:0
Archreg:76 Phyreg lookup:204 value:0
Archreg:77 Phyreg lookup:205 value:0
Archreg:78 Phyreg lookup:206 value:0
Archreg:79 Phyreg lookup:207 value:0
Archreg:80 Phyreg lookup:208 value:0
Archreg:81 Phyreg lookup:209 value:0
Archreg:82 Phyreg lookup:210 value:0
Archreg:83 Phyreg lookup:211 value:0
Archreg:84 Phyreg lookup:212 value:0
Archreg:85 Phyreg lookup:213 value:0
Archreg:86 Phyreg lookup:214 value:0
Archreg:87 Phyreg lookup:215 value:0
Archreg:88 Phyreg lookup:216 value:0
Archreg:89 Phyreg lookup:217 value:0
Archreg:90 Phyreg lookup:218 value:0
Archreg:91 Phyreg lookup:219 value:0
Archreg:92 Phyreg lookup:220 value:0
Archreg:93 Phyreg lookup:221 value:0
Archreg:94 Phyreg lookup:222 value:0
Archreg:95 Phyreg lookup:223 value:0
Archreg:96 Phyreg lookup:224 value:0
Archreg:97 Phyreg lookup:225 value:0
Archreg:98 Phyreg lookup:226 value:0
Archreg:99 Phyreg lookup:227 value:0
Archreg:100 Phyreg lookup:228 value:0
Archreg:101 Phyreg lookup:229 value:0
Archreg:102 Phyreg lookup:230 value:0
Archreg:103 Phyreg lookup:231 value:0
Archreg:104 Phyreg lookup:232 value:0
Archreg:105 Phyreg lookup:233 value:0
Archreg:106 Phyreg lookup:234 value:0
Archreg:107 Phyreg lookup:235 value:0
Archreg:108 Phyreg lookup:236 value:0
Archreg:109 Phyreg lookup:237 value:0
Archreg:110 Phyreg lookup:238 value:0
Archreg:111 Phyreg lookup:239 value:0
Archreg:112 Phyreg lookup:240 value:0
Archreg:113 Phyreg lookup:241 value:0
Archreg:114 Phyreg lookup:242 value:0
Archreg:115 Phyreg lookup:243 value:0
Archreg:116 Phyreg lookup:244 value:0
Archreg:117 Phyreg lookup:245 value:0
Archreg:118 Phyreg lookup:246 value:0
Archreg:119 Phyreg lookup:247 value:0
Archreg:120 Phyreg lookup:248 value:0
Archreg:121 Phyreg lookup:249 value:0
Archreg:122 Phyreg lookup:250 value:0
Archreg:123 Phyreg lookup:251 value:0
Archreg:124 Phyreg lookup:252 value:0
Archreg:125 Phyreg lookup:253 value:0
Archreg:126 Phyreg lookup:254 value:0
Archreg:127 Phyreg lookup:255 value:0
Archreg:128 Phyreg lookup:256 value:0
Archreg:129 Phyreg lookup:257 value:0
Archreg:130 Phyreg lookup:258 value:0
Archreg:131 Phyreg lookup:259 value:0
Archreg:132 Phyreg lookup:260 value:0
Archreg:133 Phyreg lookup:261 value:0
Archreg:134 Phyreg lookup:262 value:0
Archreg:135 Phyreg lookup:263 value:0
Archreg:136 Phyreg lookup:264 value:0
Archreg:137 Phyreg lookup:265 value:0
Archreg:138 Phyreg lookup:266 value:0
Archreg:139 Phyreg lookup:267 value:0
Archreg:140 Phyreg lookup:268 value:0
Archreg:141 Phyreg lookup:269 value:0
Archreg:142 Phyreg lookup:270 value:0
Archreg:143 Phyreg lookup:271 value:0
Archreg:144 Phyreg lookup:272 value:0
Archreg:145 Phyreg lookup:273 value:0
Archreg:146 Phyreg lookup:274 value:0
Archreg:147 Phyreg lookup:275 value:0
Archreg:148 Phyreg lookup:276 value:0
Archreg:149 Phyreg lookup:277 value:0
Archreg:150 Phyreg lookup:278 value:0
Archreg:151 Phyreg lookup:279 value:0
Archreg:152 Phyreg lookup:280 value:0
Archreg:153 Phyreg lookup:281 value:0
Archreg:154 Phyreg lookup:282 value:0
Archreg:155 Phyreg lookup:283 value:0
Archreg:156 Phyreg lookup:284 value:0
Archreg:157 Phyreg lookup:285 value:0
Archreg:158 Phyreg lookup:286 value:0
Archreg:159 Phyreg lookup:287 value:0
*****CC REG mappings total TheISA::NumCCRegs:6
Archreg:0 Phyreg lookup:607 value:0
Archreg:1 Phyreg lookup:594 value:1
Archreg:2 Phyreg lookup:580 value:0
Archreg:3 Phyreg lookup:323 value:0
Archreg:4 Phyreg lookup:586 value:0
Archreg:5 Phyreg lookup:325 value:0
*****TRANSFORM going to print the reg mappings now!
*****INT REG mappings total TheISA::NumIntRegs:43
Archreg:0 Phyreg lookup:6 value:5180228
Archreg:1 Phyreg lookup:54 value:0
Archreg:2 Phyreg lookup:55 value:177208
Archreg:3 Phyreg lookup:1 value:5181580
Archreg:4 Phyreg lookup:64 value:0
Archreg:5 Phyreg lookup:57 value:4291532
Archreg:6 Phyreg lookup:49 value:5360388
Archreg:7 Phyreg lookup:61 value:4970092
Archreg:8 Phyreg lookup:62 value:0
Archreg:9 Phyreg lookup:46 value:3755008
Archreg:10 Phyreg lookup:10 value:5536516
Archreg:11 Phyreg lookup:4 value:4
Archreg:12 Phyreg lookup:59 value:0
Archreg:13 Phyreg lookup:12 value:3204447080
Archreg:14 Phyreg lookup:63 value:557335
Archreg:15 Phyreg lookup:51 value:711663
Archreg:16 Phyreg lookup:16 value:0
Archreg:17 Phyreg lookup:17 value:0
Archreg:18 Phyreg lookup:18 value:0
Archreg:19 Phyreg lookup:19 value:0
Archreg:20 Phyreg lookup:20 value:0
Archreg:21 Phyreg lookup:21 value:0
Archreg:22 Phyreg lookup:22 value:0
Archreg:23 Phyreg lookup:23 value:0
Archreg:24 Phyreg lookup:24 value:0
Archreg:25 Phyreg lookup:25 value:0
Archreg:26 Phyreg lookup:26 value:0
Archreg:27 Phyreg lookup:27 value:0
Archreg:28 Phyreg lookup:28 value:0
Archreg:29 Phyreg lookup:29 value:0
Archreg:30 Phyreg lookup:30 value:0
Archreg:31 Phyreg lookup:31 value:0
Archreg:32 Phyreg lookup:32 value:0
Archreg:33 Phyreg lookup:33 value:0
Archreg:34 Phyreg lookup:34 value:0
Archreg:35 Phyreg lookup:5 value:767099
Archreg:36 Phyreg lookup:43 value:711663
Archreg:37 Phyreg lookup:37 value:0
Archreg:38 Phyreg lookup:38 value:0
Archreg:39 Phyreg lookup:39 value:0
Archreg:40 Phyreg lookup:40 value:0
Archreg:41 Phyreg lookup:41 value:0
Archreg:42 Phyreg lookup:42 value:0
*****FLOAT REG mappings total TheISA::NumFloatRegs:160
Archreg:0 Phyreg lookup:128 value:0
Archreg:1 Phyreg lookup:129 value:0
Archreg:2 Phyreg lookup:130 value:0
Archreg:3 Phyreg lookup:131 value:0
Archreg:4 Phyreg lookup:132 value:0
Archreg:5 Phyreg lookup:133 value:0
Archreg:6 Phyreg lookup:134 value:0
Archreg:7 Phyreg lookup:135 value:0
Archreg:8 Phyreg lookup:136 value:0
Archreg:9 Phyreg lookup:137 value:0
Archreg:10 Phyreg lookup:138 value:0
Archreg:11 Phyreg lookup:139 value:0
Archreg:12 Phyreg lookup:140 value:0
Archreg:13 Phyreg lookup:141 value:0
Archreg:14 Phyreg lookup:142 value:0
Archreg:15 Phyreg lookup:143 value:0
Archreg:16 Phyreg lookup:144 value:0
Archreg:17 Phyreg lookup:145 value:0
Archreg:18 Phyreg lookup:146 value:0
Archreg:19 Phyreg lookup:147 value:0
Archreg:20 Phyreg lookup:148 value:0
Archreg:21 Phyreg lookup:149 value:0
Archreg:22 Phyreg lookup:150 value:0
Archreg:23 Phyreg lookup:151 value:0
Archreg:24 Phyreg lookup:152 value:0
Archreg:25 Phyreg lookup:153 value:0
Archreg:26 Phyreg lookup:154 value:0
Archreg:27 Phyreg lookup:155 value:0
Archreg:28 Phyreg lookup:156 value:0
Archreg:29 Phyreg lookup:157 value:0
Archreg:30 Phyreg lookup:158 value:0
Archreg:31 Phyreg lookup:159 value:0
Archreg:32 Phyreg lookup:160 value:0
Archreg:33 Phyreg lookup:161 value:0
Archreg:34 Phyreg lookup:162 value:0
Archreg:35 Phyreg lookup:163 value:0
Archreg:36 Phyreg lookup:164 value:0
Archreg:37 Phyreg lookup:165 value:0
Archreg:38 Phyreg lookup:166 value:0
Archreg:39 Phyreg lookup:167 value:0
Archreg:40 Phyreg lookup:168 value:0
Archreg:41 Phyreg lookup:169 value:0
Archreg:42 Phyreg lookup:170 value:0
Archreg:43 Phyreg lookup:171 value:0
Archreg:44 Phyreg lookup:172 value:0
Archreg:45 Phyreg lookup:173 value:0
Archreg:46 Phyreg lookup:174 value:0
Archreg:47 Phyreg lookup:175 value:0
Archreg:48 Phyreg lookup:176 value:0
Archreg:49 Phyreg lookup:177 value:0
Archreg:50 Phyreg lookup:178 value:0
Archreg:51 Phyreg lookup:179 value:0
Archreg:52 Phyreg lookup:180 value:0
Archreg:53 Phyreg lookup:181 value:0
Archreg:54 Phyreg lookup:182 value:0
Archreg:55 Phyreg lookup:183 value:0
Archreg:56 Phyreg lookup:184 value:0
Archreg:57 Phyreg lookup:185 value:0
Archreg:58 Phyreg lookup:186 value:0
Archreg:59 Phyreg lookup:187 value:0
Archreg:60 Phyreg lookup:188 value:0
Archreg:61 Phyreg lookup:189 value:0
Archreg:62 Phyreg lookup:190 value:0
Archreg:63 Phyreg lookup:191 value:0
Archreg:64 Phyreg lookup:192 value:0
Archreg:65 Phyreg lookup:193 value:0
Archreg:66 Phyreg lookup:194 value:0
Archreg:67 Phyreg lookup:195 value:0
Archreg:68 Phyreg lookup:196 value:0
Archreg:69 Phyreg lookup:197 value:0
Archreg:70 Phyreg lookup:198 value:0
Archreg:71 Phyreg lookup:199 value:0
Archreg:72 Phyreg lookup:200 value:0
Archreg:73 Phyreg lookup:201 value:0
Archreg:74 Phyreg lookup:202 value:0
Archreg:75 Phyreg lookup:203 value:0
Archreg:76 Phyreg lookup:204 value:0
Archreg:77 Phyreg lookup:205 value:0
Archreg:78 Phyreg lookup:206 value:0
Archreg:79 Phyreg lookup:207 value:0
Archreg:80 Phyreg lookup:208 value:0
Archreg:81 Phyreg lookup:209 value:0
Archreg:82 Phyreg lookup:210 value:0
Archreg:83 Phyreg lookup:211 value:0
Archreg:84 Phyreg lookup:212 value:0
Archreg:85 Phyreg lookup:213 value:0
Archreg:86 Phyreg lookup:214 value:0
Archreg:87 Phyreg lookup:215 value:0
Archreg:88 Phyreg lookup:216 value:0
Archreg:89 Phyreg lookup:217 value:0
Archreg:90 Phyreg lookup:218 value:0
Archreg:91 Phyreg lookup:219 value:0
Archreg:92 Phyreg lookup:220 value:0
Archreg:93 Phyreg lookup:221 value:0
Archreg:94 Phyreg lookup:222 value:0
Archreg:95 Phyreg lookup:223 value:0
Archreg:96 Phyreg lookup:224 value:0
Archreg:97 Phyreg lookup:225 value:0
Archreg:98 Phyreg lookup:226 value:0
Archreg:99 Phyreg lookup:227 value:0
Archreg:100 Phyreg lookup:228 value:0
Archreg:101 Phyreg lookup:229 value:0
Archreg:102 Phyreg lookup:230 value:0
Archreg:103 Phyreg lookup:231 value:0
Archreg:104 Phyreg lookup:232 value:0
Archreg:105 Phyreg lookup:233 value:0
Archreg:106 Phyreg lookup:234 value:0
Archreg:107 Phyreg lookup:235 value:0
Archreg:108 Phyreg lookup:236 value:0
Archreg:109 Phyreg lookup:237 value:0
Archreg:110 Phyreg lookup:238 value:0
Archreg:111 Phyreg lookup:239 value:0
Archreg:112 Phyreg lookup:240 value:0
Archreg:113 Phyreg lookup:241 value:0
Archreg:114 Phyreg lookup:242 value:0
Archreg:115 Phyreg lookup:243 value:0
Archreg:116 Phyreg lookup:244 value:0
Archreg:117 Phyreg lookup:245 value:0
Archreg:118 Phyreg lookup:246 value:0
Archreg:119 Phyreg lookup:247 value:0
Archreg:120 Phyreg lookup:248 value:0
Archreg:121 Phyreg lookup:249 value:0
Archreg:122 Phyreg lookup:250 value:0
Archreg:123 Phyreg lookup:251 value:0
Archreg:124 Phyreg lookup:252 value:0
Archreg:125 Phyreg lookup:253 value:0
Archreg:126 Phyreg lookup:254 value:0
Archreg:127 Phyreg lookup:255 value:0
Archreg:128 Phyreg lookup:256 value:0
Archreg:129 Phyreg lookup:257 value:0
Archreg:130 Phyreg lookup:258 value:0
Archreg:131 Phyreg lookup:259 value:0
Archreg:132 Phyreg lookup:260 value:0
Archreg:133 Phyreg lookup:261 value:0
Archreg:134 Phyreg lookup:262 value:0
Archreg:135 Phyreg lookup:263 value:0
Archreg:136 Phyreg lookup:264 value:0
Archreg:137 Phyreg lookup:265 value:0
Archreg:138 Phyreg lookup:266 value:0
Archreg:139 Phyreg lookup:267 value:0
Archreg:140 Phyreg lookup:268 value:0
Archreg:141 Phyreg lookup:269 value:0
Archreg:142 Phyreg lookup:270 value:0
Archreg:143 Phyreg lookup:271 value:0
Archreg:144 Phyreg lookup:272 value:0
Archreg:145 Phyreg lookup:273 value:0
Archreg:146 Phyreg lookup:274 value:0
Archreg:147 Phyreg lookup:275 value:0
Archreg:148 Phyreg lookup:276 value:0
Archreg:149 Phyreg lookup:277 value:0
Archreg:150 Phyreg lookup:278 value:0
Archreg:151 Phyreg lookup:279 value:0
Archreg:152 Phyreg lookup:280 value:0
Archreg:153 Phyreg lookup:281 value:0
Archreg:154 Phyreg lookup:282 value:0
Archreg:155 Phyreg lookup:283 value:0
Archreg:156 Phyreg lookup:284 value:0
Archreg:157 Phyreg lookup:285 value:0
Archreg:158 Phyreg lookup:286 value:0
Archreg:159 Phyreg lookup:287 value:0
*****CC REG mappings total TheISA::NumCCRegs:6
Archreg:0 Phyreg lookup:607 value:0
Archreg:1 Phyreg lookup:594 value:1
Archreg:2 Phyreg lookup:580 value:0
Archreg:3 Phyreg lookup:323 value:0
Archreg:4 Phyreg lookup:586 value:0
Archreg:5 Phyreg lookup:325 value:0
restrict_intreg_mapping BEFORE numFreeEntries:32
restrict_intreg_mapping: Skipping phy:6 against regfile->numIntPhysRegs():128 with tf_regfile_scale_factor:2
restrict_intreg_mapping: Skipping phy:54 against regfile->numIntPhysRegs():128 with tf_regfile_scale_factor:2
restrict_intreg_mapping: Skipping phy:55 against regfile->numIntPhysRegs():128 with tf_regfile_scale_factor:2
restrict_intreg_mapping: Skipping phy:1 against regfile->numIntPhysRegs():128 with tf_regfile_scale_factor:2
restrict_intreg_mapping: Skipping phy:64 against regfile->numIntPhysRegs():128 with tf_regfile_scale_factor:2
restrict_intreg_mapping: Skipping phy:57 against regfile->numIntPhysRegs():128 with tf_regfile_scale_factor:2
restrict_intreg_mapping: Skipping phy:49 against regfile->numIntPhysRegs():128 with tf_regfile_scale_factor:2
restrict_intreg_mapping: Skipping phy:61 against regfile->numIntPhysRegs():128 with tf_regfile_scale_factor:2
restrict_intreg_mapping: Skipping phy:62 against regfile->numIntPhysRegs():128 with tf_regfile_scale_factor:2
restrict_intreg_mapping: Skipping phy:46 against regfile->numIntPhysRegs():128 with tf_regfile_scale_factor:2
restrict_intreg_mapping: Skipping phy:10 against regfile->numIntPhysRegs():128 with tf_regfile_scale_factor:2
restrict_intreg_mapping: Skipping phy:4 against regfile->numIntPhysRegs():128 with tf_regfile_scale_factor:2
restrict_intreg_mapping: Skipping phy:59 against regfile->numIntPhysRegs():128 with tf_regfile_scale_factor:2
restrict_intreg_mapping: Skipping phy:12 against regfile->numIntPhysRegs():128 with tf_regfile_scale_factor:2
restrict_intreg_mapping: Skipping phy:63 against regfile->numIntPhysRegs():128 with tf_regfile_scale_factor:2
restrict_intreg_mapping: Skipping phy:51 against regfile->numIntPhysRegs():128 with tf_regfile_scale_factor:2
restrict_intreg_mapping: Skipping phy:16 against regfile->numIntPhysRegs():128 with tf_regfile_scale_factor:2
restrict_intreg_mapping: Skipping phy:17 against regfile->numIntPhysRegs():128 with tf_regfile_scale_factor:2
restrict_intreg_mapping: Skipping phy:18 against regfile->numIntPhysRegs():128 with tf_regfile_scale_factor:2
restrict_intreg_mapping: Skipping phy:19 against regfile->numIntPhysRegs():128 with tf_regfile_scale_factor:2
restrict_intreg_mapping: Skipping phy:20 against regfile->numIntPhysRegs():128 with tf_regfile_scale_factor:2
restrict_intreg_mapping: Skipping phy:21 against regfile->numIntPhysRegs():128 with tf_regfile_scale_factor:2
restrict_intreg_mapping: Skipping phy:22 against regfile->numIntPhysRegs():128 with tf_regfile_scale_factor:2
restrict_intreg_mapping: Skipping phy:23 against regfile->numIntPhysRegs():128 with tf_regfile_scale_factor:2
restrict_intreg_mapping: Skipping phy:24 against regfile->numIntPhysRegs():128 with tf_regfile_scale_factor:2
restrict_intreg_mapping: Skipping phy:25 against regfile->numIntPhysRegs():128 with tf_regfile_scale_factor:2
restrict_intreg_mapping: Skipping phy:26 against regfile->numIntPhysRegs():128 with tf_regfile_scale_factor:2
restrict_intreg_mapping: Skipping phy:27 against regfile->numIntPhysRegs():128 with tf_regfile_scale_factor:2
restrict_intreg_mapping: Skipping phy:28 against regfile->numIntPhysRegs():128 with tf_regfile_scale_factor:2
restrict_intreg_mapping: Skipping phy:29 against regfile->numIntPhysRegs():128 with tf_regfile_scale_factor:2
restrict_intreg_mapping: Skipping phy:30 against regfile->numIntPhysRegs():128 with tf_regfile_scale_factor:2
restrict_intreg_mapping: Skipping phy:31 against regfile->numIntPhysRegs():128 with tf_regfile_scale_factor:2
restrict_intreg_mapping: Skipping phy:32 against regfile->numIntPhysRegs():128 with tf_regfile_scale_factor:2
restrict_intreg_mapping: Skipping phy:33 against regfile->numIntPhysRegs():128 with tf_regfile_scale_factor:2
restrict_intreg_mapping: Skipping phy:34 against regfile->numIntPhysRegs():128 with tf_regfile_scale_factor:2
restrict_intreg_mapping: Skipping phy:5 against regfile->numIntPhysRegs():128 with tf_regfile_scale_factor:2
restrict_intreg_mapping: Skipping phy:43 against regfile->numIntPhysRegs():128 with tf_regfile_scale_factor:2
restrict_intreg_mapping: Skipping phy:37 against regfile->numIntPhysRegs():128 with tf_regfile_scale_factor:2
restrict_intreg_mapping: Skipping phy:38 against regfile->numIntPhysRegs():128 with tf_regfile_scale_factor:2
restrict_intreg_mapping: Skipping phy:39 against regfile->numIntPhysRegs():128 with tf_regfile_scale_factor:2
restrict_intreg_mapping: Skipping phy:40 against regfile->numIntPhysRegs():128 with tf_regfile_scale_factor:2
restrict_intreg_mapping: Skipping phy:41 against regfile->numIntPhysRegs():128 with tf_regfile_scale_factor:2
restrict_intreg_mapping: Skipping phy:42 against regfile->numIntPhysRegs():128 with tf_regfile_scale_factor:2
restrict_intreg_mapping AFTER numFreeEntries:32
restrict_ccreg_mapping BEFORE numFreeEntries:32
restrict_ccreg_mapping: Skipping phy:607 against regFile->numIntPhysRegs() + regFile->numFloatPhysRegs()+ regfile->numCCPhysRegs():960 with tf_regfile_scale_factor:2
restrict_ccreg_mapping: Skipping phy:594 against regFile->numIntPhysRegs() + regFile->numFloatPhysRegs()+ regfile->numCCPhysRegs():960 with tf_regfile_scale_factor:2
restrict_ccreg_mapping: Skipping phy:580 against regFile->numIntPhysRegs() + regFile->numFloatPhysRegs()+ regfile->numCCPhysRegs():960 with tf_regfile_scale_factor:2
restrict_ccreg_mapping: Skipping phy:323 against regFile->numIntPhysRegs() + regFile->numFloatPhysRegs()+ regfile->numCCPhysRegs():960 with tf_regfile_scale_factor:2
restrict_ccreg_mapping: Skipping phy:586 against regFile->numIntPhysRegs() + regFile->numFloatPhysRegs()+ regfile->numCCPhysRegs():960 with tf_regfile_scale_factor:2
restrict_ccreg_mapping: Skipping phy:325 against regFile->numIntPhysRegs() + regFile->numFloatPhysRegs()+ regfile->numCCPhysRegs():960 with tf_regfile_scale_factor:2
restrict_ccreg_mapping AFTER numFreeEntries:32
*****TRANSFORM going to print the reg mappings now!
*****INT REG mappings total TheISA::NumIntRegs:43
Archreg:0 Phyreg lookup:6 value:5180228
Archreg:1 Phyreg lookup:54 value:0
Archreg:2 Phyreg lookup:55 value:177208
Archreg:3 Phyreg lookup:1 value:5181580
Archreg:4 Phyreg lookup:64 value:0
Archreg:5 Phyreg lookup:57 value:4291532
Archreg:6 Phyreg lookup:49 value:5360388
Archreg:7 Phyreg lookup:61 value:4970092
Archreg:8 Phyreg lookup:62 value:0
Archreg:9 Phyreg lookup:46 value:3755008
Archreg:10 Phyreg lookup:10 value:5536516
Archreg:11 Phyreg lookup:4 value:4
Archreg:12 Phyreg lookup:59 value:0
Archreg:13 Phyreg lookup:12 value:3204447080
Archreg:14 Phyreg lookup:63 value:557335
Archreg:15 Phyreg lookup:51 value:711663
Archreg:16 Phyreg lookup:16 value:0
Archreg:17 Phyreg lookup:17 value:0
Archreg:18 Phyreg lookup:18 value:0
Archreg:19 Phyreg lookup:19 value:0
Archreg:20 Phyreg lookup:20 value:0
Archreg:21 Phyreg lookup:21 value:0
Archreg:22 Phyreg lookup:22 value:0
Archreg:23 Phyreg lookup:23 value:0
Archreg:24 Phyreg lookup:24 value:0
Archreg:25 Phyreg lookup:25 value:0
Archreg:26 Phyreg lookup:26 value:0
Archreg:27 Phyreg lookup:27 value:0
Archreg:28 Phyreg lookup:28 value:0
Archreg:29 Phyreg lookup:29 value:0
Archreg:30 Phyreg lookup:30 value:0
Archreg:31 Phyreg lookup:31 value:0
Archreg:32 Phyreg lookup:32 value:0
Archreg:33 Phyreg lookup:33 value:0
Archreg:34 Phyreg lookup:34 value:0
Archreg:35 Phyreg lookup:5 value:767099
Archreg:36 Phyreg lookup:43 value:711663
Archreg:37 Phyreg lookup:37 value:0
Archreg:38 Phyreg lookup:38 value:0
Archreg:39 Phyreg lookup:39 value:0
Archreg:40 Phyreg lookup:40 value:0
Archreg:41 Phyreg lookup:41 value:0
Archreg:42 Phyreg lookup:42 value:0
*****FLOAT REG mappings total TheISA::NumFloatRegs:160
Archreg:0 Phyreg lookup:128 value:0
Archreg:1 Phyreg lookup:129 value:0
Archreg:2 Phyreg lookup:130 value:0
Archreg:3 Phyreg lookup:131 value:0
Archreg:4 Phyreg lookup:132 value:0
Archreg:5 Phyreg lookup:133 value:0
Archreg:6 Phyreg lookup:134 value:0
Archreg:7 Phyreg lookup:135 value:0
Archreg:8 Phyreg lookup:136 value:0
Archreg:9 Phyreg lookup:137 value:0
Archreg:10 Phyreg lookup:138 value:0
Archreg:11 Phyreg lookup:139 value:0
Archreg:12 Phyreg lookup:140 value:0
Archreg:13 Phyreg lookup:141 value:0
Archreg:14 Phyreg lookup:142 value:0
Archreg:15 Phyreg lookup:143 value:0
Archreg:16 Phyreg lookup:144 value:0
Archreg:17 Phyreg lookup:145 value:0
Archreg:18 Phyreg lookup:146 value:0
Archreg:19 Phyreg lookup:147 value:0
Archreg:20 Phyreg lookup:148 value:0
Archreg:21 Phyreg lookup:149 value:0
Archreg:22 Phyreg lookup:150 value:0
Archreg:23 Phyreg lookup:151 value:0
Archreg:24 Phyreg lookup:152 value:0
Archreg:25 Phyreg lookup:153 value:0
Archreg:26 Phyreg lookup:154 value:0
Archreg:27 Phyreg lookup:155 value:0
Archreg:28 Phyreg lookup:156 value:0
Archreg:29 Phyreg lookup:157 value:0
Archreg:30 Phyreg lookup:158 value:0
Archreg:31 Phyreg lookup:159 value:0
Archreg:32 Phyreg lookup:160 value:0
Archreg:33 Phyreg lookup:161 value:0
Archreg:34 Phyreg lookup:162 value:0
Archreg:35 Phyreg lookup:163 value:0
Archreg:36 Phyreg lookup:164 value:0
Archreg:37 Phyreg lookup:165 value:0
Archreg:38 Phyreg lookup:166 value:0
Archreg:39 Phyreg lookup:167 value:0
Archreg:40 Phyreg lookup:168 value:0
Archreg:41 Phyreg lookup:169 value:0
Archreg:42 Phyreg lookup:170 value:0
Archreg:43 Phyreg lookup:171 value:0
Archreg:44 Phyreg lookup:172 value:0
Archreg:45 Phyreg lookup:173 value:0
Archreg:46 Phyreg lookup:174 value:0
Archreg:47 Phyreg lookup:175 value:0
Archreg:48 Phyreg lookup:176 value:0
Archreg:49 Phyreg lookup:177 value:0
Archreg:50 Phyreg lookup:178 value:0
Archreg:51 Phyreg lookup:179 value:0
Archreg:52 Phyreg lookup:180 value:0
Archreg:53 Phyreg lookup:181 value:0
Archreg:54 Phyreg lookup:182 value:0
Archreg:55 Phyreg lookup:183 value:0
Archreg:56 Phyreg lookup:184 value:0
Archreg:57 Phyreg lookup:185 value:0
Archreg:58 Phyreg lookup:186 value:0
Archreg:59 Phyreg lookup:187 value:0
Archreg:60 Phyreg lookup:188 value:0
Archreg:61 Phyreg lookup:189 value:0
Archreg:62 Phyreg lookup:190 value:0
Archreg:63 Phyreg lookup:191 value:0
Archreg:64 Phyreg lookup:192 value:0
Archreg:65 Phyreg lookup:193 value:0
Archreg:66 Phyreg lookup:194 value:0
Archreg:67 Phyreg lookup:195 value:0
Archreg:68 Phyreg lookup:196 value:0
Archreg:69 Phyreg lookup:197 value:0
Archreg:70 Phyreg lookup:198 value:0
Archreg:71 Phyreg lookup:199 value:0
Archreg:72 Phyreg lookup:200 value:0
Archreg:73 Phyreg lookup:201 value:0
Archreg:74 Phyreg lookup:202 value:0
Archreg:75 Phyreg lookup:203 value:0
Archreg:76 Phyreg lookup:204 value:0
Archreg:77 Phyreg lookup:205 value:0
Archreg:78 Phyreg lookup:206 value:0
Archreg:79 Phyreg lookup:207 value:0
Archreg:80 Phyreg lookup:208 value:0
Archreg:81 Phyreg lookup:209 value:0
Archreg:82 Phyreg lookup:210 value:0
Archreg:83 Phyreg lookup:211 value:0
Archreg:84 Phyreg lookup:212 value:0
Archreg:85 Phyreg lookup:213 value:0
Archreg:86 Phyreg lookup:214 value:0
Archreg:87 Phyreg lookup:215 value:0
Archreg:88 Phyreg lookup:216 value:0
Archreg:89 Phyreg lookup:217 value:0
Archreg:90 Phyreg lookup:218 value:0
Archreg:91 Phyreg lookup:219 value:0
Archreg:92 Phyreg lookup:220 value:0
Archreg:93 Phyreg lookup:221 value:0
Archreg:94 Phyreg lookup:222 value:0
Archreg:95 Phyreg lookup:223 value:0
Archreg:96 Phyreg lookup:224 value:0
Archreg:97 Phyreg lookup:225 value:0
Archreg:98 Phyreg lookup:226 value:0
Archreg:99 Phyreg lookup:227 value:0
Archreg:100 Phyreg lookup:228 value:0
Archreg:101 Phyreg lookup:229 value:0
Archreg:102 Phyreg lookup:230 value:0
Archreg:103 Phyreg lookup:231 value:0
Archreg:104 Phyreg lookup:232 value:0
Archreg:105 Phyreg lookup:233 value:0
Archreg:106 Phyreg lookup:234 value:0
Archreg:107 Phyreg lookup:235 value:0
Archreg:108 Phyreg lookup:236 value:0
Archreg:109 Phyreg lookup:237 value:0
Archreg:110 Phyreg lookup:238 value:0
Archreg:111 Phyreg lookup:239 value:0
Archreg:112 Phyreg lookup:240 value:0
Archreg:113 Phyreg lookup:241 value:0
Archreg:114 Phyreg lookup:242 value:0
Archreg:115 Phyreg lookup:243 value:0
Archreg:116 Phyreg lookup:244 value:0
Archreg:117 Phyreg lookup:245 value:0
Archreg:118 Phyreg lookup:246 value:0
Archreg:119 Phyreg lookup:247 value:0
Archreg:120 Phyreg lookup:248 value:0
Archreg:121 Phyreg lookup:249 value:0
Archreg:122 Phyreg lookup:250 value:0
Archreg:123 Phyreg lookup:251 value:0
Archreg:124 Phyreg lookup:252 value:0
Archreg:125 Phyreg lookup:253 value:0
Archreg:126 Phyreg lookup:254 value:0
Archreg:127 Phyreg lookup:255 value:0
Archreg:128 Phyreg lookup:256 value:0
Archreg:129 Phyreg lookup:257 value:0
Archreg:130 Phyreg lookup:258 value:0
Archreg:131 Phyreg lookup:259 value:0
Archreg:132 Phyreg lookup:260 value:0
Archreg:133 Phyreg lookup:261 value:0
Archreg:134 Phyreg lookup:262 value:0
Archreg:135 Phyreg lookup:263 value:0
Archreg:136 Phyreg lookup:264 value:0
Archreg:137 Phyreg lookup:265 value:0
Archreg:138 Phyreg lookup:266 value:0
Archreg:139 Phyreg lookup:267 value:0
Archreg:140 Phyreg lookup:268 value:0
Archreg:141 Phyreg lookup:269 value:0
Archreg:142 Phyreg lookup:270 value:0
Archreg:143 Phyreg lookup:271 value:0
Archreg:144 Phyreg lookup:272 value:0
Archreg:145 Phyreg lookup:273 value:0
Archreg:146 Phyreg lookup:274 value:0
Archreg:147 Phyreg lookup:275 value:0
Archreg:148 Phyreg lookup:276 value:0
Archreg:149 Phyreg lookup:277 value:0
Archreg:150 Phyreg lookup:278 value:0
Archreg:151 Phyreg lookup:279 value:0
Archreg:152 Phyreg lookup:280 value:0
Archreg:153 Phyreg lookup:281 value:0
Archreg:154 Phyreg lookup:282 value:0
Archreg:155 Phyreg lookup:283 value:0
Archreg:156 Phyreg lookup:284 value:0
Archreg:157 Phyreg lookup:285 value:0
Archreg:158 Phyreg lookup:286 value:0
Archreg:159 Phyreg lookup:287 value:0
*****CC REG mappings total TheISA::NumCCRegs:6
Archreg:0 Phyreg lookup:607 value:0
Archreg:1 Phyreg lookup:594 value:1
Archreg:2 Phyreg lookup:580 value:0
Archreg:3 Phyreg lookup:323 value:0
Archreg:4 Phyreg lookup:586 value:0
Archreg:5 Phyreg lookup:325 value:0
*****TRANSFORM going to print the reg mappings now!
*****INT REG mappings total TheISA::NumIntRegs:43
Archreg:0 Phyreg lookup:6 value:5180228
Archreg:1 Phyreg lookup:54 value:0
Archreg:2 Phyreg lookup:55 value:177208
Archreg:3 Phyreg lookup:1 value:5181580
Archreg:4 Phyreg lookup:64 value:0
Archreg:5 Phyreg lookup:57 value:4291532
Archreg:6 Phyreg lookup:49 value:5360388
Archreg:7 Phyreg lookup:61 value:4970092
Archreg:8 Phyreg lookup:62 value:0
Archreg:9 Phyreg lookup:46 value:3755008
Archreg:10 Phyreg lookup:10 value:5536516
Archreg:11 Phyreg lookup:4 value:4
Archreg:12 Phyreg lookup:59 value:0
Archreg:13 Phyreg lookup:12 value:3204447080
Archreg:14 Phyreg lookup:63 value:557335
Archreg:15 Phyreg lookup:51 value:711663
Archreg:16 Phyreg lookup:16 value:0
Archreg:17 Phyreg lookup:17 value:0
Archreg:18 Phyreg lookup:18 value:0
Archreg:19 Phyreg lookup:19 value:0
Archreg:20 Phyreg lookup:20 value:0
Archreg:21 Phyreg lookup:21 value:0
Archreg:22 Phyreg lookup:22 value:0
Archreg:23 Phyreg lookup:23 value:0
Archreg:24 Phyreg lookup:24 value:0
Archreg:25 Phyreg lookup:25 value:0
Archreg:26 Phyreg lookup:26 value:0
Archreg:27 Phyreg lookup:27 value:0
Archreg:28 Phyreg lookup:28 value:0
Archreg:29 Phyreg lookup:29 value:0
Archreg:30 Phyreg lookup:30 value:0
Archreg:31 Phyreg lookup:31 value:0
Archreg:32 Phyreg lookup:32 value:0
Archreg:33 Phyreg lookup:33 value:0
Archreg:34 Phyreg lookup:34 value:0
Archreg:35 Phyreg lookup:5 value:767099
Archreg:36 Phyreg lookup:43 value:711663
Archreg:37 Phyreg lookup:37 value:0
Archreg:38 Phyreg lookup:38 value:0
Archreg:39 Phyreg lookup:39 value:0
Archreg:40 Phyreg lookup:40 value:0
Archreg:41 Phyreg lookup:41 value:0
Archreg:42 Phyreg lookup:42 value:0
*****FLOAT REG mappings total TheISA::NumFloatRegs:160
Archreg:0 Phyreg lookup:128 value:0
Archreg:1 Phyreg lookup:129 value:0
Archreg:2 Phyreg lookup:130 value:0
Archreg:3 Phyreg lookup:131 value:0
Archreg:4 Phyreg lookup:132 value:0
Archreg:5 Phyreg lookup:133 value:0
Archreg:6 Phyreg lookup:134 value:0
Archreg:7 Phyreg lookup:135 value:0
Archreg:8 Phyreg lookup:136 value:0
Archreg:9 Phyreg lookup:137 value:0
Archreg:10 Phyreg lookup:138 value:0
Archreg:11 Phyreg lookup:139 value:0
Archreg:12 Phyreg lookup:140 value:0
Archreg:13 Phyreg lookup:141 value:0
Archreg:14 Phyreg lookup:142 value:0
Archreg:15 Phyreg lookup:143 value:0
Archreg:16 Phyreg lookup:144 value:0
Archreg:17 Phyreg lookup:145 value:0
Archreg:18 Phyreg lookup:146 value:0
Archreg:19 Phyreg lookup:147 value:0
Archreg:20 Phyreg lookup:148 value:0
Archreg:21 Phyreg lookup:149 value:0
Archreg:22 Phyreg lookup:150 value:0
Archreg:23 Phyreg lookup:151 value:0
Archreg:24 Phyreg lookup:152 value:0
Archreg:25 Phyreg lookup:153 value:0
Archreg:26 Phyreg lookup:154 value:0
Archreg:27 Phyreg lookup:155 value:0
Archreg:28 Phyreg lookup:156 value:0
Archreg:29 Phyreg lookup:157 value:0
Archreg:30 Phyreg lookup:158 value:0
Archreg:31 Phyreg lookup:159 value:0
Archreg:32 Phyreg lookup:160 value:0
Archreg:33 Phyreg lookup:161 value:0
Archreg:34 Phyreg lookup:162 value:0
Archreg:35 Phyreg lookup:163 value:0
Archreg:36 Phyreg lookup:164 value:0
Archreg:37 Phyreg lookup:165 value:0
Archreg:38 Phyreg lookup:166 value:0
Archreg:39 Phyreg lookup:167 value:0
Archreg:40 Phyreg lookup:168 value:0
Archreg:41 Phyreg lookup:169 value:0
Archreg:42 Phyreg lookup:170 value:0
Archreg:43 Phyreg lookup:171 value:0
Archreg:44 Phyreg lookup:172 value:0
Archreg:45 Phyreg lookup:173 value:0
Archreg:46 Phyreg lookup:174 value:0
Archreg:47 Phyreg lookup:175 value:0
Archreg:48 Phyreg lookup:176 value:0
Archreg:49 Phyreg lookup:177 value:0
Archreg:50 Phyreg lookup:178 value:0
Archreg:51 Phyreg lookup:179 value:0
Archreg:52 Phyreg lookup:180 value:0
Archreg:53 Phyreg lookup:181 value:0
Archreg:54 Phyreg lookup:182 value:0
Archreg:55 Phyreg lookup:183 value:0
Archreg:56 Phyreg lookup:184 value:0
Archreg:57 Phyreg lookup:185 value:0
Archreg:58 Phyreg lookup:186 value:0
Archreg:59 Phyreg lookup:187 value:0
Archreg:60 Phyreg lookup:188 value:0
Archreg:61 Phyreg lookup:189 value:0
Archreg:62 Phyreg lookup:190 value:0
Archreg:63 Phyreg lookup:191 value:0
Archreg:64 Phyreg lookup:192 value:0
Archreg:65 Phyreg lookup:193 value:0
Archreg:66 Phyreg lookup:194 value:0
Archreg:67 Phyreg lookup:195 value:0
Archreg:68 Phyreg lookup:196 value:0
Archreg:69 Phyreg lookup:197 value:0
Archreg:70 Phyreg lookup:198 value:0
Archreg:71 Phyreg lookup:199 value:0
Archreg:72 Phyreg lookup:200 value:0
Archreg:73 Phyreg lookup:201 value:0
Archreg:74 Phyreg lookup:202 value:0
Archreg:75 Phyreg lookup:203 value:0
Archreg:76 Phyreg lookup:204 value:0
Archreg:77 Phyreg lookup:205 value:0
Archreg:78 Phyreg lookup:206 value:0
Archreg:79 Phyreg lookup:207 value:0
Archreg:80 Phyreg lookup:208 value:0
Archreg:81 Phyreg lookup:209 value:0
Archreg:82 Phyreg lookup:210 value:0
Archreg:83 Phyreg lookup:211 value:0
Archreg:84 Phyreg lookup:212 value:0
Archreg:85 Phyreg lookup:213 value:0
Archreg:86 Phyreg lookup:214 value:0
Archreg:87 Phyreg lookup:215 value:0
Archreg:88 Phyreg lookup:216 value:0
Archreg:89 Phyreg lookup:217 value:0
Archreg:90 Phyreg lookup:218 value:0
Archreg:91 Phyreg lookup:219 value:0
Archreg:92 Phyreg lookup:220 value:0
Archreg:93 Phyreg lookup:221 value:0
Archreg:94 Phyreg lookup:222 value:0
Archreg:95 Phyreg lookup:223 value:0
Archreg:96 Phyreg lookup:224 value:0
Archreg:97 Phyreg lookup:225 value:0
Archreg:98 Phyreg lookup:226 value:0
Archreg:99 Phyreg lookup:227 value:0
Archreg:100 Phyreg lookup:228 value:0
Archreg:101 Phyreg lookup:229 value:0
Archreg:102 Phyreg lookup:230 value:0
Archreg:103 Phyreg lookup:231 value:0
Archreg:104 Phyreg lookup:232 value:0
Archreg:105 Phyreg lookup:233 value:0
Archreg:106 Phyreg lookup:234 value:0
Archreg:107 Phyreg lookup:235 value:0
Archreg:108 Phyreg lookup:236 value:0
Archreg:109 Phyreg lookup:237 value:0
Archreg:110 Phyreg lookup:238 value:0
Archreg:111 Phyreg lookup:239 value:0
Archreg:112 Phyreg lookup:240 value:0
Archreg:113 Phyreg lookup:241 value:0
Archreg:114 Phyreg lookup:242 value:0
Archreg:115 Phyreg lookup:243 value:0
Archreg:116 Phyreg lookup:244 value:0
Archreg:117 Phyreg lookup:245 value:0
Archreg:118 Phyreg lookup:246 value:0
Archreg:119 Phyreg lookup:247 value:0
Archreg:120 Phyreg lookup:248 value:0
Archreg:121 Phyreg lookup:249 value:0
Archreg:122 Phyreg lookup:250 value:0
Archreg:123 Phyreg lookup:251 value:0
Archreg:124 Phyreg lookup:252 value:0
Archreg:125 Phyreg lookup:253 value:0
Archreg:126 Phyreg lookup:254 value:0
Archreg:127 Phyreg lookup:255 value:0
Archreg:128 Phyreg lookup:256 value:0
Archreg:129 Phyreg lookup:257 value:0
Archreg:130 Phyreg lookup:258 value:0
Archreg:131 Phyreg lookup:259 value:0
Archreg:132 Phyreg lookup:260 value:0
Archreg:133 Phyreg lookup:261 value:0
Archreg:134 Phyreg lookup:262 value:0
Archreg:135 Phyreg lookup:263 value:0
Archreg:136 Phyreg lookup:264 value:0
Archreg:137 Phyreg lookup:265 value:0
Archreg:138 Phyreg lookup:266 value:0
Archreg:139 Phyreg lookup:267 value:0
Archreg:140 Phyreg lookup:268 value:0
Archreg:141 Phyreg lookup:269 value:0
Archreg:142 Phyreg lookup:270 value:0
Archreg:143 Phyreg lookup:271 value:0
Archreg:144 Phyreg lookup:272 value:0
Archreg:145 Phyreg lookup:273 value:0
Archreg:146 Phyreg lookup:274 value:0
Archreg:147 Phyreg lookup:275 value:0
Archreg:148 Phyreg lookup:276 value:0
Archreg:149 Phyreg lookup:277 value:0
Archreg:150 Phyreg lookup:278 value:0
Archreg:151 Phyreg lookup:279 value:0
Archreg:152 Phyreg lookup:280 value:0
Archreg:153 Phyreg lookup:281 value:0
Archreg:154 Phyreg lookup:282 value:0
Archreg:155 Phyreg lookup:283 value:0
Archreg:156 Phyreg lookup:284 value:0
Archreg:157 Phyreg lookup:285 value:0
Archreg:158 Phyreg lookup:286 value:0
Archreg:159 Phyreg lookup:287 value:0
*****CC REG mappings total TheISA::NumCCRegs:6
Archreg:0 Phyreg lookup:607 value:0
Archreg:1 Phyreg lookup:594 value:1
Archreg:2 Phyreg lookup:580 value:0
Archreg:3 Phyreg lookup:323 value:0
Archreg:4 Phyreg lookup:586 value:0
Archreg:5 Phyreg lookup:325 value:0
restrict_intreg_mapping BEFORE numFreeEntries:32
restrict_intreg_mapping: Skipping phy:6 against regfile->numIntPhysRegs():128 with tf_regfile_scale_factor:2
restrict_intreg_mapping: Skipping phy:54 against regfile->numIntPhysRegs():128 with tf_regfile_scale_factor:2
restrict_intreg_mapping: Skipping phy:55 against regfile->numIntPhysRegs():128 with tf_regfile_scale_factor:2
restrict_intreg_mapping: Skipping phy:1 against regfile->numIntPhysRegs():128 with tf_regfile_scale_factor:2
restrict_intreg_mapping: Skipping phy:64 against regfile->numIntPhysRegs():128 with tf_regfile_scale_factor:2
restrict_intreg_mapping: Skipping phy:57 against regfile->numIntPhysRegs():128 with tf_regfile_scale_factor:2
restrict_intreg_mapping: Skipping phy:49 against regfile->numIntPhysRegs():128 with tf_regfile_scale_factor:2
restrict_intreg_mapping: Skipping phy:61 against regfile->numIntPhysRegs():128 with tf_regfile_scale_factor:2
restrict_intreg_mapping: Skipping phy:62 against regfile->numIntPhysRegs():128 with tf_regfile_scale_factor:2
restrict_intreg_mapping: Skipping phy:46 against regfile->numIntPhysRegs():128 with tf_regfile_scale_factor:2
restrict_intreg_mapping: Skipping phy:10 against regfile->numIntPhysRegs():128 with tf_regfile_scale_factor:2
restrict_intreg_mapping: Skipping phy:4 against regfile->numIntPhysRegs():128 with tf_regfile_scale_factor:2
restrict_intreg_mapping: Skipping phy:59 against regfile->numIntPhysRegs():128 with tf_regfile_scale_factor:2
restrict_intreg_mapping: Skipping phy:12 against regfile->numIntPhysRegs():128 with tf_regfile_scale_factor:2
restrict_intreg_mapping: Skipping phy:63 against regfile->numIntPhysRegs():128 with tf_regfile_scale_factor:2
restrict_intreg_mapping: Skipping phy:51 against regfile->numIntPhysRegs():128 with tf_regfile_scale_factor:2
restrict_intreg_mapping: Skipping phy:16 against regfile->numIntPhysRegs():128 with tf_regfile_scale_factor:2
restrict_intreg_mapping: Skipping phy:17 against regfile->numIntPhysRegs():128 with tf_regfile_scale_factor:2
restrict_intreg_mapping: Skipping phy:18 against regfile->numIntPhysRegs():128 with tf_regfile_scale_factor:2
restrict_intreg_mapping: Skipping phy:19 against regfile->numIntPhysRegs():128 with tf_regfile_scale_factor:2
restrict_intreg_mapping: Skipping phy:20 against regfile->numIntPhysRegs():128 with tf_regfile_scale_factor:2
restrict_intreg_mapping: Skipping phy:21 against regfile->numIntPhysRegs():128 with tf_regfile_scale_factor:2
restrict_intreg_mapping: Skipping phy:22 against regfile->numIntPhysRegs():128 with tf_regfile_scale_factor:2
restrict_intreg_mapping: Skipping phy:23 against regfile->numIntPhysRegs():128 with tf_regfile_scale_factor:2
restrict_intreg_mapping: Skipping phy:24 against regfile->numIntPhysRegs():128 with tf_regfile_scale_factor:2
restrict_intreg_mapping: Skipping phy:25 against regfile->numIntPhysRegs():128 with tf_regfile_scale_factor:2
restrict_intreg_mapping: Skipping phy:26 against regfile->numIntPhysRegs():128 with tf_regfile_scale_factor:2
restrict_intreg_mapping: Skipping phy:27 against regfile->numIntPhysRegs():128 with tf_regfile_scale_factor:2
restrict_intreg_mapping: Skipping phy:28 against regfile->numIntPhysRegs():128 with tf_regfile_scale_factor:2
restrict_intreg_mapping: Skipping phy:29 against regfile->numIntPhysRegs():128 with tf_regfile_scale_factor:2
restrict_intreg_mapping: Skipping phy:30 against regfile->numIntPhysRegs():128 with tf_regfile_scale_factor:2
restrict_intreg_mapping: Skipping phy:31 against regfile->numIntPhysRegs():128 with tf_regfile_scale_factor:2
restrict_intreg_mapping: Skipping phy:32 against regfile->numIntPhysRegs():128 with tf_regfile_scale_factor:2
restrict_intreg_mapping: Skipping phy:33 against regfile->numIntPhysRegs():128 with tf_regfile_scale_factor:2
restrict_intreg_mapping: Skipping phy:34 against regfile->numIntPhysRegs():128 with tf_regfile_scale_factor:2
restrict_intreg_mapping: Skipping phy:5 against regfile->numIntPhysRegs():128 with tf_regfile_scale_factor:2
restrict_intreg_mapping: Skipping phy:43 against regfile->numIntPhysRegs():128 with tf_regfile_scale_factor:2
restrict_intreg_mapping: Skipping phy:37 against regfile->numIntPhysRegs():128 with tf_regfile_scale_factor:2
restrict_intreg_mapping: Skipping phy:38 against regfile->numIntPhysRegs():128 with tf_regfile_scale_factor:2
restrict_intreg_mapping: Skipping phy:39 against regfile->numIntPhysRegs():128 with tf_regfile_scale_factor:2
restrict_intreg_mapping: Skipping phy:40 against regfile->numIntPhysRegs():128 with tf_regfile_scale_factor:2
restrict_intreg_mapping: Skipping phy:41 against regfile->numIntPhysRegs():128 with tf_regfile_scale_factor:2
restrict_intreg_mapping: Skipping phy:42 against regfile->numIntPhysRegs():128 with tf_regfile_scale_factor:2
restrict_intreg_mapping AFTER numFreeEntries:32
restrict_ccreg_mapping BEFORE numFreeEntries:32
restrict_ccreg_mapping: Skipping phy:607 against regFile->numIntPhysRegs() + regFile->numFloatPhysRegs()+ regfile->numCCPhysRegs():960 with tf_regfile_scale_factor:2
restrict_ccreg_mapping: Skipping phy:594 against regFile->numIntPhysRegs() + regFile->numFloatPhysRegs()+ regfile->numCCPhysRegs():960 with tf_regfile_scale_factor:2
restrict_ccreg_mapping: Skipping phy:580 against regFile->numIntPhysRegs() + regFile->numFloatPhysRegs()+ regfile->numCCPhysRegs():960 with tf_regfile_scale_factor:2
restrict_ccreg_mapping: Skipping phy:323 against regFile->numIntPhysRegs() + regFile->numFloatPhysRegs()+ regfile->numCCPhysRegs():960 with tf_regfile_scale_factor:2
restrict_ccreg_mapping: Skipping phy:586 against regFile->numIntPhysRegs() + regFile->numFloatPhysRegs()+ regfile->numCCPhysRegs():960 with tf_regfile_scale_factor:2
restrict_ccreg_mapping: Skipping phy:325 against regFile->numIntPhysRegs() + regFile->numFloatPhysRegs()+ regfile->numCCPhysRegs():960 with tf_regfile_scale_factor:2
restrict_ccreg_mapping AFTER numFreeEntries:32
*****TRANSFORM going to print the reg mappings now!
*****INT REG mappings total TheISA::NumIntRegs:43
Archreg:0 Phyreg lookup:6 value:5180228
Archreg:1 Phyreg lookup:54 value:0
Archreg:2 Phyreg lookup:55 value:177208
Archreg:3 Phyreg lookup:1 value:5181580
Archreg:4 Phyreg lookup:64 value:0
Archreg:5 Phyreg lookup:57 value:4291532
Archreg:6 Phyreg lookup:49 value:5360388
Archreg:7 Phyreg lookup:61 value:4970092
Archreg:8 Phyreg lookup:62 value:0
Archreg:9 Phyreg lookup:46 value:3755008
Archreg:10 Phyreg lookup:10 value:5536516
Archreg:11 Phyreg lookup:4 value:4
Archreg:12 Phyreg lookup:59 value:0
Archreg:13 Phyreg lookup:12 value:3204447080
Archreg:14 Phyreg lookup:63 value:557335
Archreg:15 Phyreg lookup:51 value:711663
Archreg:16 Phyreg lookup:16 value:0
Archreg:17 Phyreg lookup:17 value:0
Archreg:18 Phyreg lookup:18 value:0
Archreg:19 Phyreg lookup:19 value:0
Archreg:20 Phyreg lookup:20 value:0
Archreg:21 Phyreg lookup:21 value:0
Archreg:22 Phyreg lookup:22 value:0
Archreg:23 Phyreg lookup:23 value:0
Archreg:24 Phyreg lookup:24 value:0
Archreg:25 Phyreg lookup:25 value:0
Archreg:26 Phyreg lookup:26 value:0
Archreg:27 Phyreg lookup:27 value:0
Archreg:28 Phyreg lookup:28 value:0
Archreg:29 Phyreg lookup:29 value:0
Archreg:30 Phyreg lookup:30 value:0
Archreg:31 Phyreg lookup:31 value:0
Archreg:32 Phyreg lookup:32 value:0
Archreg:33 Phyreg lookup:33 value:0
Archreg:34 Phyreg lookup:34 value:0
Archreg:35 Phyreg lookup:5 value:767099
Archreg:36 Phyreg lookup:43 value:711663
Archreg:37 Phyreg lookup:37 value:0
Archreg:38 Phyreg lookup:38 value:0
Archreg:39 Phyreg lookup:39 value:0
Archreg:40 Phyreg lookup:40 value:0
Archreg:41 Phyreg lookup:41 value:0
Archreg:42 Phyreg lookup:42 value:0
*****FLOAT REG mappings total TheISA::NumFloatRegs:160
Archreg:0 Phyreg lookup:128 value:0
Archreg:1 Phyreg lookup:129 value:0
Archreg:2 Phyreg lookup:130 value:0
Archreg:3 Phyreg lookup:131 value:0
Archreg:4 Phyreg lookup:132 value:0
Archreg:5 Phyreg lookup:133 value:0
Archreg:6 Phyreg lookup:134 value:0
Archreg:7 Phyreg lookup:135 value:0
Archreg:8 Phyreg lookup:136 value:0
Archreg:9 Phyreg lookup:137 value:0
Archreg:10 Phyreg lookup:138 value:0
Archreg:11 Phyreg lookup:139 value:0
Archreg:12 Phyreg lookup:140 value:0
Archreg:13 Phyreg lookup:141 value:0
Archreg:14 Phyreg lookup:142 value:0
Archreg:15 Phyreg lookup:143 value:0
Archreg:16 Phyreg lookup:144 value:0
Archreg:17 Phyreg lookup:145 value:0
Archreg:18 Phyreg lookup:146 value:0
Archreg:19 Phyreg lookup:147 value:0
Archreg:20 Phyreg lookup:148 value:0
Archreg:21 Phyreg lookup:149 value:0
Archreg:22 Phyreg lookup:150 value:0
Archreg:23 Phyreg lookup:151 value:0
Archreg:24 Phyreg lookup:152 value:0
Archreg:25 Phyreg lookup:153 value:0
Archreg:26 Phyreg lookup:154 value:0
Archreg:27 Phyreg lookup:155 value:0
Archreg:28 Phyreg lookup:156 value:0
Archreg:29 Phyreg lookup:157 value:0
Archreg:30 Phyreg lookup:158 value:0
Archreg:31 Phyreg lookup:159 value:0
Archreg:32 Phyreg lookup:160 value:0
Archreg:33 Phyreg lookup:161 value:0
Archreg:34 Phyreg lookup:162 value:0
Archreg:35 Phyreg lookup:163 value:0
Archreg:36 Phyreg lookup:164 value:0
Archreg:37 Phyreg lookup:165 value:0
Archreg:38 Phyreg lookup:166 value:0
Archreg:39 Phyreg lookup:167 value:0
Archreg:40 Phyreg lookup:168 value:0
Archreg:41 Phyreg lookup:169 value:0
Archreg:42 Phyreg lookup:170 value:0
Archreg:43 Phyreg lookup:171 value:0
Archreg:44 Phyreg lookup:172 value:0
Archreg:45 Phyreg lookup:173 value:0
Archreg:46 Phyreg lookup:174 value:0
Archreg:47 Phyreg lookup:175 value:0
Archreg:48 Phyreg lookup:176 value:0
Archreg:49 Phyreg lookup:177 value:0
Archreg:50 Phyreg lookup:178 value:0
Archreg:51 Phyreg lookup:179 value:0
Archreg:52 Phyreg lookup:180 value:0
Archreg:53 Phyreg lookup:181 value:0
Archreg:54 Phyreg lookup:182 value:0
Archreg:55 Phyreg lookup:183 value:0
Archreg:56 Phyreg lookup:184 value:0
Archreg:57 Phyreg lookup:185 value:0
Archreg:58 Phyreg lookup:186 value:0
Archreg:59 Phyreg lookup:187 value:0
Archreg:60 Phyreg lookup:188 value:0
Archreg:61 Phyreg lookup:189 value:0
Archreg:62 Phyreg lookup:190 value:0
Archreg:63 Phyreg lookup:191 value:0
Archreg:64 Phyreg lookup:192 value:0
Archreg:65 Phyreg lookup:193 value:0
Archreg:66 Phyreg lookup:194 value:0
Archreg:67 Phyreg lookup:195 value:0
Archreg:68 Phyreg lookup:196 value:0
Archreg:69 Phyreg lookup:197 value:0
Archreg:70 Phyreg lookup:198 value:0
Archreg:71 Phyreg lookup:199 value:0
Archreg:72 Phyreg lookup:200 value:0
Archreg:73 Phyreg lookup:201 value:0
Archreg:74 Phyreg lookup:202 value:0
Archreg:75 Phyreg lookup:203 value:0
Archreg:76 Phyreg lookup:204 value:0
Archreg:77 Phyreg lookup:205 value:0
Archreg:78 Phyreg lookup:206 value:0
Archreg:79 Phyreg lookup:207 value:0
Archreg:80 Phyreg lookup:208 value:0
Archreg:81 Phyreg lookup:209 value:0
Archreg:82 Phyreg lookup:210 value:0
Archreg:83 Phyreg lookup:211 value:0
Archreg:84 Phyreg lookup:212 value:0
Archreg:85 Phyreg lookup:213 value:0
Archreg:86 Phyreg lookup:214 value:0
Archreg:87 Phyreg lookup:215 value:0
Archreg:88 Phyreg lookup:216 value:0
Archreg:89 Phyreg lookup:217 value:0
Archreg:90 Phyreg lookup:218 value:0
Archreg:91 Phyreg lookup:219 value:0
Archreg:92 Phyreg lookup:220 value:0
Archreg:93 Phyreg lookup:221 value:0
Archreg:94 Phyreg lookup:222 value:0
Archreg:95 Phyreg lookup:223 value:0
Archreg:96 Phyreg lookup:224 value:0
Archreg:97 Phyreg lookup:225 value:0
Archreg:98 Phyreg lookup:226 value:0
Archreg:99 Phyreg lookup:227 value:0
Archreg:100 Phyreg lookup:228 value:0
Archreg:101 Phyreg lookup:229 value:0
Archreg:102 Phyreg lookup:230 value:0
Archreg:103 Phyreg lookup:231 value:0
Archreg:104 Phyreg lookup:232 value:0
Archreg:105 Phyreg lookup:233 value:0
Archreg:106 Phyreg lookup:234 value:0
Archreg:107 Phyreg lookup:235 value:0
Archreg:108 Phyreg lookup:236 value:0
Archreg:109 Phyreg lookup:237 value:0
Archreg:110 Phyreg lookup:238 value:0
Archreg:111 Phyreg lookup:239 value:0
Archreg:112 Phyreg lookup:240 value:0
Archreg:113 Phyreg lookup:241 value:0
Archreg:114 Phyreg lookup:242 value:0
Archreg:115 Phyreg lookup:243 value:0
Archreg:116 Phyreg lookup:244 value:0
Archreg:117 Phyreg lookup:245 value:0
Archreg:118 Phyreg lookup:246 value:0
Archreg:119 Phyreg lookup:247 value:0
Archreg:120 Phyreg lookup:248 value:0
Archreg:121 Phyreg lookup:249 value:0
Archreg:122 Phyreg lookup:250 value:0
Archreg:123 Phyreg lookup:251 value:0
Archreg:124 Phyreg lookup:252 value:0
Archreg:125 Phyreg lookup:253 value:0
Archreg:126 Phyreg lookup:254 value:0
Archreg:127 Phyreg lookup:255 value:0
Archreg:128 Phyreg lookup:256 value:0
Archreg:129 Phyreg lookup:257 value:0
Archreg:130 Phyreg lookup:258 value:0
Archreg:131 Phyreg lookup:259 value:0
Archreg:132 Phyreg lookup:260 value:0
Archreg:133 Phyreg lookup:261 value:0
Archreg:134 Phyreg lookup:262 value:0
Archreg:135 Phyreg lookup:263 value:0
Archreg:136 Phyreg lookup:264 value:0
Archreg:137 Phyreg lookup:265 value:0
Archreg:138 Phyreg lookup:266 value:0
Archreg:139 Phyreg lookup:267 value:0
Archreg:140 Phyreg lookup:268 value:0
Archreg:141 Phyreg lookup:269 value:0
Archreg:142 Phyreg lookup:270 value:0
Archreg:143 Phyreg lookup:271 value:0
Archreg:144 Phyreg lookup:272 value:0
Archreg:145 Phyreg lookup:273 value:0
Archreg:146 Phyreg lookup:274 value:0
Archreg:147 Phyreg lookup:275 value:0
Archreg:148 Phyreg lookup:276 value:0
Archreg:149 Phyreg lookup:277 value:0
Archreg:150 Phyreg lookup:278 value:0
Archreg:151 Phyreg lookup:279 value:0
Archreg:152 Phyreg lookup:280 value:0
Archreg:153 Phyreg lookup:281 value:0
Archreg:154 Phyreg lookup:282 value:0
Archreg:155 Phyreg lookup:283 value:0
Archreg:156 Phyreg lookup:284 value:0
Archreg:157 Phyreg lookup:285 value:0
Archreg:158 Phyreg lookup:286 value:0
Archreg:159 Phyreg lookup:287 value:0
*****CC REG mappings total TheISA::NumCCRegs:6
Archreg:0 Phyreg lookup:607 value:0
Archreg:1 Phyreg lookup:594 value:1
Archreg:2 Phyreg lookup:580 value:0
Archreg:3 Phyreg lookup:323 value:0
Archreg:4 Phyreg lookup:586 value:0
Archreg:5 Phyreg lookup:325 value:0
*****TRANSFORM going to print the reg mappings now!
*****INT REG mappings total TheISA::NumIntRegs:43
Archreg:0 Phyreg lookup:6 value:5180228
Archreg:1 Phyreg lookup:54 value:0
Archreg:2 Phyreg lookup:55 value:177208
Archreg:3 Phyreg lookup:1 value:5181580
Archreg:4 Phyreg lookup:64 value:0
Archreg:5 Phyreg lookup:57 value:4291532
Archreg:6 Phyreg lookup:49 value:5360388
Archreg:7 Phyreg lookup:61 value:4970092
Archreg:8 Phyreg lookup:62 value:0
Archreg:9 Phyreg lookup:46 value:3755008
Archreg:10 Phyreg lookup:10 value:5536516
Archreg:11 Phyreg lookup:4 value:4
Archreg:12 Phyreg lookup:59 value:0
Archreg:13 Phyreg lookup:12 value:3204447080
Archreg:14 Phyreg lookup:63 value:557335
Archreg:15 Phyreg lookup:51 value:711663
Archreg:16 Phyreg lookup:16 value:0
Archreg:17 Phyreg lookup:17 value:0
Archreg:18 Phyreg lookup:18 value:0
Archreg:19 Phyreg lookup:19 value:0
Archreg:20 Phyreg lookup:20 value:0
Archreg:21 Phyreg lookup:21 value:0
Archreg:22 Phyreg lookup:22 value:0
Archreg:23 Phyreg lookup:23 value:0
Archreg:24 Phyreg lookup:24 value:0
Archreg:25 Phyreg lookup:25 value:0
Archreg:26 Phyreg lookup:26 value:0
Archreg:27 Phyreg lookup:27 value:0
Archreg:28 Phyreg lookup:28 value:0
Archreg:29 Phyreg lookup:29 value:0
Archreg:30 Phyreg lookup:30 value:0
Archreg:31 Phyreg lookup:31 value:0
Archreg:32 Phyreg lookup:32 value:0
Archreg:33 Phyreg lookup:33 value:0
Archreg:34 Phyreg lookup:34 value:0
Archreg:35 Phyreg lookup:5 value:767099
Archreg:36 Phyreg lookup:43 value:711663
Archreg:37 Phyreg lookup:37 value:0
Archreg:38 Phyreg lookup:38 value:0
Archreg:39 Phyreg lookup:39 value:0
[...]
Archreg:5 Phyreg lookup:133 value:0
Archreg:6 Phyreg lookup:134 value:0
Archreg:7 Phyreg lookup:135 value:0
Archreg:8 Phyreg lookup:136 value:0
Archreg:9 Phyreg lookup:137 value:0
Archreg:10 Phyreg lookup:138 value:0
Archreg:11 Phyreg lookup:139 value:0
Archreg:12 Phyreg lookup:140 value:0
Archreg:13 Phyreg lookup:141 value:0
Archreg:14 Phyreg lookup:142 value:0
Archreg:15 Phyreg lookup:143 value:0
Archreg:16 Phyreg lookup:144 value:0
Archreg:17 Phyreg lookup:145 value:0
Archreg:18 Phyreg lookup:146 value:0
Archreg:19 Phyreg lookup:147 value:0
Archreg:20 Phyreg lookup:148 value:0
Archreg:21 Phyreg lookup:149 value:0
Archreg:22 Phyreg lookup:150 value:0
Archreg:23 Phyreg lookup:151 value:0
Archreg:24 Phyreg lookup:152 value:0
Archreg:25 Phyreg lookup:153 value:0
Archreg:26 Phyreg lookup:154 value:0
Archreg:27 Phyreg lookup:155 value:0
Archreg:28 Phyreg lookup:156 value:0
Archreg:29 Phyreg lookup:157 value:0
Archreg:30 Phyreg lookup:158 value:0
Archreg:31 Phyreg lookup:159 value:0
Archreg:32 Phyreg lookup:160 value:0
Archreg:33 Phyreg lookup:161 value:0
Archreg:34 Phyreg lookup:162 value:0
Archreg:35 Phyreg lookup:163 value:0
Archreg:36 Phyreg lookup:164 value:0
Archreg:37 Phyreg lookup:165 value:0
Archreg:38 Phyreg lookup:166 value:0
Archreg:39 Phyreg lookup:167 value:0
Archreg:40 Phyreg lookup:168 value:0
Archreg:41 Phyreg lookup:169 value:0
Archreg:42 Phyreg lookup:170 value:0
Archreg:43 Phyreg lookup:171 value:0
Archreg:44 Phyreg lookup:172 value:0
Archreg:45 Phyreg lookup:173 value:0
Archreg:46 Phyreg lookup:174 value:0
Archreg:47 Phyreg lookup:175 value:0
Archreg:48 Phyreg lookup:176 value:0
Archreg:49 Phyreg lookup:177 value:0
Archreg:50 Phyreg lookup:178 value:0
Archreg:51 Phyreg lookup:179 value:0
Archreg:52 Phyreg lookup:180 value:0
Archreg:53 Phyreg lookup:181 value:0
Archreg:54 Phyreg lookup:182 value:0
Archreg:55 Phyreg lookup:183 value:0
Archreg:56 Phyreg lookup:184 value:0
Archreg:57 Phyreg lookup:185 value:0
Archreg:58 Phyreg lookup:186 value:0
Archreg:59 Phyreg lookup:187 value:0
Archreg:60 Phyreg lookup:188 value:0
Archreg:61 Phyreg lookup:189 value:0
Archreg:62 Phyreg lookup:190 value:0
Archreg:63 Phyreg lookup:191 value:0
Archreg:64 Phyreg lookup:192 value:0
Archreg:65 Phyreg lookup:193 value:0
Archreg:66 Phyreg lookup:194 value:0
Archreg:67 Phyreg lookup:195 value:0
Archreg:68 Phyreg lookup:196 value:0
Archreg:69 Phyreg lookup:197 value:0
Archreg:70 Phyreg lookup:198 value:0
Archreg:71 Phyreg lookup:199 value:0
Archreg:72 Phyreg lookup:200 value:0
Archreg:73 Phyreg lookup:201 value:0
Archreg:74 Phyreg lookup:202 value:0
Archreg:75 Phyreg lookup:203 value:0
Archreg:76 Phyreg lookup:204 value:0
Archreg:77 Phyreg lookup:205 value:0
Archreg:78 Phyreg lookup:206 value:0
Archreg:79 Phyreg lookup:207 value:0
Archreg:80 Phyreg lookup:208 value:0
Archreg:81 Phyreg lookup:209 value:0
Archreg:82 Phyreg lookup:210 value:0
Archreg:83 Phyreg lookup:211 value:0
Archreg:84 Phyreg lookup:212 value:0
Archreg:85 Phyreg lookup:213 value:0
Archreg:86 Phyreg lookup:214 value:0
Archreg:87 Phyreg lookup:215 value:0
Archreg:88 Phyreg lookup:216 value:0
Archreg:89 Phyreg lookup:217 value:0
Archreg:90 Phyreg lookup:218 value:0
Archreg:91 Phyreg lookup:219 value:0
Archreg:92 Phyreg lookup:220 value:0
Archreg:93 Phyreg lookup:221 value:0
Archreg:94 Phyreg lookup:222 value:0
Archreg:95 Phyreg lookup:223 value:0
Archreg:96 Phyreg lookup:224 value:0
Archreg:97 Phyreg lookup:225 value:0
Archreg:98 Phyreg lookup:226 value:0
Archreg:99 Phyreg lookup:227 value:0
Archreg:100 Phyreg lookup:228 value:0
Archreg:101 Phyreg lookup:229 value:0
Archreg:102 Phyreg lookup:230 value:0
Archreg:103 Phyreg lookup:231 value:0
Archreg:104 Phyreg lookup:232 value:0
Archreg:105 Phyreg lookup:233 value:0
Archreg:106 Phyreg lookup:234 value:0
Archreg:107 Phyreg lookup:235 value:0
Archreg:108 Phyreg lookup:236 value:0
Archreg:109 Phyreg lookup:237 value:0
Archreg:110 Phyreg lookup:238 value:0
Archreg:111 Phyreg lookup:239 value:0
Archreg:112 Phyreg lookup:240 value:0
Archreg:113 Phyreg lookup:241 value:0
Archreg:114 Phyreg lookup:242 value:0
Archreg:115 Phyreg lookup:243 value:0
Archreg:116 Phyreg lookup:244 value:0
Archreg:117 Phyreg lookup:245 value:0
Archreg:118 Phyreg lookup:246 value:0
Archreg:119 Phyreg lookup:247 value:0
Archreg:120 Phyreg lookup:248 value:0
Archreg:121 Phyreg lookup:249 value:0
Archreg:122 Phyreg lookup:250 value:0
Archreg:123 Phyreg lookup:251 value:0
Archreg:124 Phyreg lookup:252 value:0
Archreg:125 Phyreg lookup:253 value:0
Archreg:126 Phyreg lookup:254 value:0
Archreg:127 Phyreg lookup:255 value:0
Archreg:128 Phyreg lookup:256 value:0
Archreg:129 Phyreg lookup:257 value:0
Archreg:130 Phyreg lookup:258 value:0
Archreg:131 Phyreg lookup:259 value:0
Archreg:132 Phyreg lookup:260 value:0
Archreg:133 Phyreg lookup:261 value:0
Archreg:134 Phyreg lookup:262 value:0
Archreg:135 Phyreg lookup:263 value:0
Archreg:136 Phyreg lookup:264 value:0
Archreg:137 Phyreg lookup:265 value:0
Archreg:138 Phyreg lookup:266 value:0
Archreg:139 Phyreg lookup:267 value:0
Archreg:140 Phyreg lookup:268 value:0
Archreg:141 Phyreg lookup:269 value:0
Archreg:142 Phyreg lookup:270 value:0
Archreg:143 Phyreg lookup:271 value:0
Archreg:144 Phyreg lookup:272 value:0
Archreg:145 Phyreg lookup:273 value:0
Archreg:146 Phyreg lookup:274 value:0
Archreg:147 Phyreg lookup:275 value:0
Archreg:148 Phyreg lookup:276 value:0
Archreg:149 Phyreg lookup:277 value:0
Archreg:150 Phyreg lookup:278 value:0
Archreg:151 Phyreg lookup:279 value:0
Archreg:152 Phyreg lookup:280 value:0
Archreg:153 Phyreg lookup:281 value:0
Archreg:154 Phyreg lookup:282 value:0
Archreg:155 Phyreg lookup:283 value:0
Archreg:156 Phyreg lookup:284 value:0
Archreg:157 Phyreg lookup:285 value:0
Archreg:158 Phyreg lookup:286 value:0
Archreg:159 Phyreg lookup:287 value:0
*****CC REG mappings total TheISA::NumCCRegs:6
Archreg:0 Phyreg lookup:607 value:0
Archreg:1 Phyreg lookup:594 value:1
Archreg:2 Phyreg lookup:580 value:0
Archreg:3 Phyreg lookup:323 value:0
Archreg:4 Phyreg lookup:586 value:0
Archreg:5 Phyreg lookup:325 value:0
restrict_intreg_mapping BEFORE numFreeEntries:32
restrict_intreg_mapping: Skipping phy:6 against regfile->numIntPhysRegs():128 with tf_regfile_scale_factor:2
restrict_intreg_mapping: Skipping phy:54 against regfile->numIntPhysRegs():128 with tf_regfile_scale_factor:2
restrict_intreg_mapping: Skipping phy:55 against regfile->numIntPhysRegs():128 with tf_regfile_scale_factor:2
restrict_intreg_mapping: Skipping phy:1 against regfile->numIntPhysRegs():128 with tf_regfile_scale_factor:2
restrict_intreg_mapping: Skipping phy:64 against regfile->numIntPhysRegs():128 with tf_regfile_scale_factor:2
restrict_intreg_mapping: Skipping phy:57 against regfile->numIntPhysRegs():128 with tf_regfile_scale_factor:2
restrict_intreg_mapping: Skipping phy:49 against regfile->numIntPhysRegs():128 with tf_regfile_scale_factor:2
restrict_intreg_mapping: Skipping phy:61 against regfile->numIntPhysRegs():128 with tf_regfile_scale_factor:2
restrict_intreg_mapping: Skipping phy:62 against regfile->numIntPhysRegs():128 with tf_regfile_scale_factor:2
restrict_intreg_mapping: Skipping phy:46 against regfile->numIntPhysRegs():128 with tf_regfile_scale_factor:2
restrict_intreg_mapping: Skipping phy:10 against regfile->numIntPhysRegs():128 with tf_regfile_scale_factor:2
restrict_intreg_mapping: Skipping phy:4 against regfile->numIntPhysRegs():128 with tf_regfile_scale_factor:2
restrict_intreg_mapping: Skipping phy:59 against regfile->numIntPhysRegs():128 with tf_regfile_scale_factor:2
restrict_intreg_mapping: Skipping phy:12 against regfile->numIntPhysRegs():128 with tf_regfile_scale_factor:2
restrict_intreg_mapping: Skipping phy:63 against regfile->numIntPhysRegs():128 with tf_regfile_scale_factor:2
restrict_intreg_mapping: Skipping phy:51 against regfile->numIntPhysRegs():128 with tf_regfile_scale_factor:2
restrict_intreg_mapping: Skipping phy:16 against regfile->numIntPhysRegs():128 with tf_regfile_scale_factor:2
restrict_intreg_mapping: Skipping phy:17 against regfile->numIntPhysRegs():128 with tf_regfile_scale_factor:2
restrict_intreg_mapping: Skipping phy:18 against regfile->numIntPhysRegs():128 with tf_regfile_scale_factor:2
restrict_intreg_mapping: Skipping phy:19 against regfile->numIntPhysRegs():128 with tf_regfile_scale_factor:2
restrict_intreg_mapping: Skipping phy:20 against regfile->numIntPhysRegs():128 with tf_regfile_scale_factor:2
restrict_intreg_mapping: Skipping phy:21 against regfile->numIntPhysRegs():128 with tf_regfile_scale_factor:2
restrict_intreg_mapping: Skipping phy:22 against regfile->numIntPhysRegs():128 with tf_regfile_scale_factor:2
restrict_intreg_mapping: Skipping phy:23 against regfile->numIntPhysRegs():128 with tf_regfile_scale_factor:2
restrict_intreg_mapping: Skipping phy:24 against regfile->numIntPhysRegs():128 with tf_regfile_scale_factor:2
restrict_intreg_mapping: Skipping phy:25 against regfile->numIntPhysRegs():128 with tf_regfile_scale_factor:2
restrict_intreg_mapping: Skipping phy:26 against regfile->numIntPhysRegs():128 with tf_regfile_scale_factor:2
restrict_intreg_mapping: Skipping phy:27 against regfile->numIntPhysRegs():128 with tf_regfile_scale_factor:2
restrict_intreg_mapping: Skipping phy:28 against regfile->numIntPhysRegs():128 with tf_regfile_scale_factor:2
restrict_intreg_mapping: Skipping phy:29 against regfile->numIntPhysRegs():128 with tf_regfile_scale_factor:2
restrict_intreg_mapping: Skipping phy:30 against regfile->numIntPhysRegs():128 with tf_regfile_scale_factor:2
restrict_intreg_mapping: Skipping phy:31 against regfile->numIntPhysRegs():128 with tf_regfile_scale_factor:2
restrict_intreg_mapping: Skipping phy:32 against regfile->numIntPhysRegs():128 with tf_regfile_scale_factor:2
restrict_intreg_mapping: Skipping phy:33 against regfile->numIntPhysRegs():128 with tf_regfile_scale_factor:2
restrict_intreg_mapping: Skipping phy:34 against regfile->numIntPhysRegs():128 with tf_regfile_scale_factor:2
restrict_intreg_mapping: Skipping phy:5 against regfile->numIntPhysRegs():128 with tf_regfile_scale_factor:2
restrict_intreg_mapping: Skipping phy:43 against regfile->numIntPhysRegs():128 with tf_regfile_scale_factor:2
restrict_intreg_mapping: Skipping phy:37 against regfile->numIntPhysRegs():128 with tf_regfile_scale_factor:2
restrict_intreg_mapping: Skipping phy:38 against regfile->numIntPhysRegs():128 with tf_regfile_scale_factor:2
restrict_intreg_mapping: Skipping phy:39 against regfile->numIntPhysRegs():128 with tf_regfile_scale_factor:2
restrict_intreg_mapping: Skipping phy:40 against regfile->numIntPhysRegs():128 with tf_regfile_scale_factor:2
restrict_intreg_mapping: Skipping phy:41 against regfile->numIntPhysRegs():128 with tf_regfile_scale_factor:2
restrict_intreg_mapping: Skipping phy:42 against regfile->numIntPhysRegs():128 with tf_regfile_scale_factor:2
restrict_intreg_mapping AFTER numFreeEntries:32
restrict_ccreg_mapping BEFORE numFreeEntries:32
restrict_ccreg_mapping: Skipping phy:607 against regFile->numIntPhysRegs() + regFile->numFloatPhysRegs()+ regfile->numCCPhysRegs():960 with tf_regfile_scale_factor:2
restrict_ccreg_mapping: Skipping phy:594 against regFile->numIntPhysRegs() + regFile->numFloatPhysRegs()+ regfile->numCCPhysRegs():960 with tf_regfile_scale_factor:2
restrict_ccreg_mapping: Skipping phy:580 against regFile->numIntPhysRegs() + regFile->numFloatPhysRegs()+ regfile->numCCPhysRegs():960 with tf_regfile_scale_factor:2
restrict_ccreg_mapping: Skipping phy:323 against regFile->numIntPhysRegs() + regFile->numFloatPhysRegs()+ regfile->numCCPhysRegs():960 with tf_regfile_scale_factor:2
restrict_ccreg_mapping: Skipping phy:586 against regFile->numIntPhysRegs() + regFile->numFloatPhysRegs()+ regfile->numCCPhysRegs():960 with tf_regfile_scale_factor:2
restrict_ccreg_mapping: Skipping phy:325 against regFile->numIntPhysRegs() + regFile->numFloatPhysRegs()+ regfile->numCCPhysRegs():960 with tf_regfile_scale_factor:2
restrict_ccreg_mapping AFTER numFreeEntries:32
*****TRANSFORM going to print the reg mappings now!
*****INT REG mappings total TheISA::NumIntRegs:43
Archreg:0 Phyreg lookup:6 value:5180228
Archreg:1 Phyreg lookup:54 value:0
Archreg:2 Phyreg lookup:55 value:177208
Archreg:3 Phyreg lookup:1 value:5181580
Archreg:4 Phyreg lookup:64 value:0
Archreg:5 Phyreg lookup:57 value:4291532
Archreg:6 Phyreg lookup:49 value:5360388
Archreg:7 Phyreg lookup:61 value:4970092
Archreg:8 Phyreg lookup:62 value:0
Archreg:9 Phyreg lookup:46 value:3755008
Archreg:10 Phyreg lookup:10 value:5536516
Archreg:11 Phyreg lookup:4 value:4
Archreg:12 Phyreg lookup:59 value:0
Archreg:13 Phyreg lookup:12 value:3204447080
Archreg:14 Phyreg lookup:63 value:557335
Archreg:15 Phyreg lookup:51 value:711663
Archreg:16 Phyreg lookup:16 value:0
Archreg:17 Phyreg lookup:17 value:0
Archreg:18 Phyreg lookup:18 value:0
Archreg:19 Phyreg lookup:19 value:0
Archreg:20 Phyreg lookup:20 value:0
Archreg:21 Phyreg lookup:21 value:0
Archreg:22 Phyreg lookup:22 value:0
Archreg:23 Phyreg lookup:23 value:0
Archreg:24 Phyreg lookup:24 value:0
Archreg:25 Phyreg lookup:25 value:0
Archreg:26 Phyreg lookup:26 value:0
Archreg:27 Phyreg lookup:27 value:0
Archreg:28 Phyreg lookup:28 value:0
Archreg:29 Phyreg lookup:29 value:0
Archreg:30 Phyreg lookup:30 value:0
Archreg:31 Phyreg lookup:31 value:0
Archreg:32 Phyreg lookup:32 value:0
Archreg:33 Phyreg lookup:33 value:0
Archreg:34 Phyreg lookup:34 value:0
Archreg:35 Phyreg lookup:5 value:767099
Archreg:36 Phyreg lookup:43 value:711663
Archreg:37 Phyreg lookup:37 value:0
Archreg:38 Phyreg lookup:38 value:0
Archreg:39 Phyreg lookup:39 value:0
Archreg:40 Phyreg lookup:40 value:0
Archreg:41 Phyreg lookup:41 value:0
Archreg:42 Phyreg lookup:42 value:0
*****FLOAT REG mappings total TheISA::NumFloatRegs:160
Archreg:0 Phyreg lookup:128 value:0
Archreg:1 Phyreg lookup:129 value:0
Archreg:2 Phyreg lookup:130 value:0
Archreg:3 Phyreg lookup:131 value:0
Archreg:4 Phyreg lookup:132 value:0
Archreg:5 Phyreg lookup:133 value:0
Archreg:6 Phyreg lookup:134 value:0
Archreg:7 Phyreg lookup:135 value:0
Archreg:8 Phyreg lookup:136 value:0
Archreg:9 Phyreg lookup:137 value:0
Archreg:10 Phyreg lookup:138 value:0
Archreg:11 Phyreg lookup:139 value:0
Archreg:12 Phyreg lookup:140 value:0
Archreg:13 Phyreg lookup:141 value:0
Archreg:14 Phyreg lookup:142 value:0
Archreg:15 Phyreg lookup:143 value:0
Archreg:16 Phyreg lookup:144 value:0
Archreg:17 Phyreg lookup:145 value:0
Archreg:18 Phyreg lookup:146 value:0
Archreg:19 Phyreg lookup:147 value:0
Archreg:20 Phyreg lookup:148 value:0
Archreg:21 Phyreg lookup:149 value:0
Archreg:22 Phyreg lookup:150 value:0
Archreg:23 Phyreg lookup:151 value:0
Archreg:24 Phyreg lookup:152 value:0
Archreg:25 Phyreg lookup:153 value:0
Archreg:26 Phyreg lookup:154 value:0
Archreg:27 Phyreg lookup:155 value:0
Archreg:28 Phyreg lookup:156 value:0
Archreg:29 Phyreg lookup:157 value:0
Archreg:30 Phyreg lookup:158 value:0
Archreg:31 Phyreg lookup:159 value:0
Archreg:32 Phyreg lookup:160 value:0
Archreg:33 Phyreg lookup:161 value:0
Archreg:34 Phyreg lookup:162 value:0
Archreg:35 Phyreg lookup:163 value:0
Archreg:36 Phyreg lookup:164 value:0
Archreg:37 Phyreg lookup:165 value:0
Archreg:38 Phyreg lookup:166 value:0
Archreg:39 Phyreg lookup:167 value:0
Archreg:40 Phyreg lookup:168 value:0
Archreg:41 Phyreg lookup:169 value:0
Archreg:42 Phyreg lookup:170 value:0
Archreg:43 Phyreg lookup:171 value:0
Archreg:44 Phyreg lookup:172 value:0
Archreg:45 Phyreg lookup:173 value:0
Archreg:46 Phyreg lookup:174 value:0
Archreg:47 Phyreg lookup:175 value:0
Archreg:48 Phyreg lookup:176 value:0
Archreg:49 Phyreg lookup:177 value:0
Archreg:50 Phyreg lookup:178 value:0
Archreg:51 Phyreg lookup:179 value:0
Archreg:52 Phyreg lookup:180 value:0
Archreg:53 Phyreg lookup:181 value:0
Archreg:54 Phyreg lookup:182 value:0
Archreg:55 Phyreg lookup:183 value:0
Archreg:56 Phyreg lookup:184 value:0
Archreg:57 Phyreg lookup:185 value:0
Archreg:58 Phyreg lookup:186 value:0
Archreg:59 Phyreg lookup:187 value:0
Archreg:60 Phyreg lookup:188 value:0
Archreg:61 Phyreg lookup:189 value:0
Archreg:62 Phyreg lookup:190 value:0
Archreg:63 Phyreg lookup:191 value:0
Archreg:64 Phyreg lookup:192 value:0
Archreg:65 Phyreg lookup:193 value:0
Archreg:66 Phyreg lookup:194 value:0
Archreg:67 Phyreg lookup:195 value:0
Archreg:68 Phyreg lookup:196 value:0
Archreg:69 Phyreg lookup:197 value:0
Archreg:70 Phyreg lookup:198 value:0
Archreg:71 Phyreg lookup:199 value:0
Archreg:72 Phyreg lookup:200 value:0
Archreg:73 Phyreg lookup:201 value:0
Archreg:74 Phyreg lookup:202 value:0
Archreg:75 Phyreg lookup:203 value:0
Archreg:76 Phyreg lookup:204 value:0
Archreg:77 Phyreg lookup:205 value:0
Archreg:78 Phyreg lookup:206 value:0
Archreg:79 Phyreg lookup:207 value:0
Archreg:80 Phyreg lookup:208 value:0
Archreg:81 Phyreg lookup:209 value:0
Archreg:82 Phyreg lookup:210 value:0
Archreg:83 Phyreg lookup:211 value:0
Archreg:84 Phyreg lookup:212 value:0
Archreg:85 Phyreg lookup:213 value:0
Archreg:86 Phyreg lookup:214 value:0
Archreg:87 Phyreg lookup:215 value:0
Archreg:88 Phyreg lookup:216 value:0
Archreg:89 Phyreg lookup:217 value:0
Archreg:90 Phyreg lookup:218 value:0
Archreg:91 Phyreg lookup:219 value:0
Archreg:92 Phyreg lookup:220 value:0
Archreg:93 Phyreg lookup:221 value:0
Archreg:94 Phyreg lookup:222 value:0
Archreg:95 Phyreg lookup:223 value:0
Archreg:96 Phyreg lookup:224 value:0
Archreg:97 Phyreg lookup:225 value:0
Archreg:98 Phyreg lookup:226 value:0
Archreg:99 Phyreg lookup:227 value:0
Archreg:100 Phyreg lookup:228 value:0
Archreg:101 Phyreg lookup:229 value:0
Archreg:102 Phyreg lookup:230 value:0
Archreg:103 Phyreg lookup:231 value:0
Archreg:104 Phyreg lookup:232 value:0
Archreg:105 Phyreg lookup:233 value:0
Archreg:106 Phyreg lookup:234 value:0
Archreg:107 Phyreg lookup:235 value:0
Archreg:108 Phyreg lookup:236 value:0
Archreg:109 Phyreg lookup:237 value:0
Archreg:110 Phyreg lookup:238 value:0
Archreg:111 Phyreg lookup:239 value:0
Archreg:112 Phyreg lookup:240 value:0
Archreg:113 Phyreg lookup:241 value:0
Archreg:114 Phyreg lookup:242 value:0
Archreg:115 Phyreg lookup:243 value:0
Archreg:116 Phyreg lookup:244 value:0
Archreg:117 Phyreg lookup:245 value:0
Archreg:118 Phyreg lookup:246 value:0
Archreg:119 Phyreg lookup:247 value:0
Archreg:120 Phyreg lookup:248 value:0
Archreg:121 Phyreg lookup:249 value:0
Archreg:122 Phyreg lookup:250 value:0
Archreg:123 Phyreg lookup:251 value:0
Archreg:124 Phyreg lookup:252 value:0
Archreg:125 Phyreg lookup:253 value:0
Archreg:126 Phyreg lookup:254 value:0
Archreg:127 Phyreg lookup:255 value:0
Archreg:128 Phyreg lookup:256 value:0
Archreg:129 Phyreg lookup:257 value:0
Archreg:130 Phyreg lookup:258 value:0
Archreg:131 Phyreg lookup:259 value:0
Archreg:132 Phyreg lookup:260 value:0
Archreg:133 Phyreg lookup:261 value:0
Archreg:134 Phyreg lookup:262 value:0
Archreg:135 Phyreg lookup:263 value:0
Archreg:136 Phyreg lookup:264 value:0
Archreg:137 Phyreg lookup:265 value:0
Archreg:138 Phyreg lookup:266 value:0
Archreg:139 Phyreg lookup:267 value:0
Archreg:140 Phyreg lookup:268 value:0
Archreg:141 Phyreg lookup:269 value:0
Archreg:142 Phyreg lookup:270 value:0
Archreg:143 Phyreg lookup:271 value:0
Archreg:144 Phyreg lookup:272 value:0
Archreg:145 Phyreg lookup:273 value:0
Archreg:146 Phyreg lookup:274 value:0
Archreg:147 Phyreg lookup:275 value:0
Archreg:148 Phyreg lookup:276 value:0
Archreg:149 Phyreg lookup:277 value:0
Archreg:150 Phyreg lookup:278 value:0
Archreg:151 Phyreg lookup:279 value:0
Archreg:152 Phyreg lookup:280 value:0
Archreg:153 Phyreg lookup:281 value:0
Archreg:154 Phyreg lookup:282 value:0
Archreg:155 Phyreg lookup:283 value:0
Archreg:156 Phyreg lookup:284 value:0
Archreg:157 Phyreg lookup:285 value:0
Archreg:158 Phyreg lookup:286 value:0
Archreg:159 Phyreg lookup:287 value:0
*****CC REG mappings total TheISA::NumCCRegs:6
Archreg:0 Phyreg lookup:607 value:0
Archreg:1 Phyreg lookup:594 value:1
Archreg:2 Phyreg lookup:580 value:0
Archreg:3 Phyreg lookup:323 value:0
Archreg:4 Phyreg lookup:586 value:0
Archreg:5 Phyreg lookup:325 value:0
