
---------- Begin Simulation Statistics ----------
sim_seconds                                  0.000013                       # Number of seconds simulated
sim_ticks                                    13270500                       # Number of ticks simulated
final_tick                                   13270500                       # Number of ticks from beginning of simulation (restored from checkpoints and never reset)
sim_freq                                 1000000000000                       # Frequency of simulated ticks
host_inst_rate                                  66202                       # Simulator instruction rate (inst/s)
host_op_rate                                    76747                       # Simulator op (including micro ops) rate (op/s)
host_tick_rate                              175565061                       # Simulator tick rate (ticks/s)
host_mem_usage                                 642668                       # Number of bytes of host memory used
host_seconds                                     0.08                       # Real time elapsed on the host
sim_insts                                        5002                       # Number of instructions simulated
sim_ops                                          5800                       # Number of ops (including micro ops) simulated
system.voltage_domain.voltage                       1                       # Voltage in Volts
system.clk_domain.clock                          1000                       # Clock period in ticks
system.mem_ctrls.bytes_read::cpu.inst           19136                       # Number of bytes read from this memory
system.mem_ctrls.bytes_read::cpu.data            9472                       # Number of bytes read from this memory
system.mem_ctrls.bytes_read::total              28608                       # Number of bytes read from this memory
system.mem_ctrls.bytes_inst_read::cpu.inst        19136                       # Number of instructions bytes read from this memory
system.mem_ctrls.bytes_inst_read::total         19136                       # Number of instructions bytes read from this memory
system.mem_ctrls.num_reads::cpu.inst              299                       # Number of read requests responded to by this memory
system.mem_ctrls.num_reads::cpu.data              148                       # Number of read requests responded to by this memory
system.mem_ctrls.num_reads::total                 447                       # Number of read requests responded to by this memory
system.mem_ctrls.bw_read::cpu.inst         1441995403                       # Total read bandwidth from this memory (bytes/s)
system.mem_ctrls.bw_read::cpu.data          713763611                       # Total read bandwidth from this memory (bytes/s)
system.mem_ctrls.bw_read::total            2155759014                       # Total read bandwidth from this memory (bytes/s)
system.mem_ctrls.bw_inst_read::cpu.inst    1441995403                       # Instruction read bandwidth from this memory (bytes/s)
system.mem_ctrls.bw_inst_read::total       1441995403                       # Instruction read bandwidth from this memory (bytes/s)
system.mem_ctrls.bw_total::cpu.inst        1441995403                       # Total bandwidth to/from this memory (bytes/s)
system.mem_ctrls.bw_total::cpu.data         713763611                       # Total bandwidth to/from this memory (bytes/s)
system.mem_ctrls.bw_total::total           2155759014                       # Total bandwidth to/from this memory (bytes/s)
system.mem_ctrls.readReqs                         447                       # Number of read requests accepted
system.mem_ctrls.writeReqs                          0                       # Number of write requests accepted
system.mem_ctrls.readBursts                       447                       # Number of DRAM read bursts, including those serviced by the write queue
system.mem_ctrls.writeBursts                        0                       # Number of DRAM write bursts, including those merged in the write queue
system.mem_ctrls.bytesReadDRAM                  28608                       # Total number of bytes read from DRAM
system.mem_ctrls.bytesReadWrQ                       0                       # Total number of bytes read from write queue
system.mem_ctrls.bytesWritten                       0                       # Total number of bytes written to DRAM
system.mem_ctrls.bytesReadSys                   28608                       # Total read bytes from the system interface side
system.mem_ctrls.bytesWrittenSys                    0                       # Total written bytes from the system interface side
system.mem_ctrls.servicedByWrQ                      0                       # Number of DRAM read bursts serviced by the write queue
system.mem_ctrls.mergedWrBursts                     0                       # Number of DRAM write bursts merged with an existing one
system.mem_ctrls.neitherReadNorWriteReqs            0                       # Number of requests that are neither read nor write
system.mem_ctrls.perBankRdBursts::0               111                       # Per bank write bursts
system.mem_ctrls.perBankRdBursts::1                49                       # Per bank write bursts
system.mem_ctrls.perBankRdBursts::2                20                       # Per bank write bursts
system.mem_ctrls.perBankRdBursts::3                43                       # Per bank write bursts
system.mem_ctrls.perBankRdBursts::4                19                       # Per bank write bursts
system.mem_ctrls.perBankRdBursts::5                39                       # Per bank write bursts
system.mem_ctrls.perBankRdBursts::6                45                       # Per bank write bursts
system.mem_ctrls.perBankRdBursts::7                10                       # Per bank write bursts
system.mem_ctrls.perBankRdBursts::8                 6                       # Per bank write bursts
system.mem_ctrls.perBankRdBursts::9                 8                       # Per bank write bursts
system.mem_ctrls.perBankRdBursts::10               28                       # Per bank write bursts
system.mem_ctrls.perBankRdBursts::11               43                       # Per bank write bursts
system.mem_ctrls.perBankRdBursts::12               10                       # Per bank write bursts
system.mem_ctrls.perBankRdBursts::13                9                       # Per bank write bursts
system.mem_ctrls.perBankRdBursts::14                0                       # Per bank write bursts
system.mem_ctrls.perBankRdBursts::15                7                       # Per bank write bursts
system.mem_ctrls.perBankWrBursts::0                 0                       # Per bank write bursts
system.mem_ctrls.perBankWrBursts::1                 0                       # Per bank write bursts
system.mem_ctrls.perBankWrBursts::2                 0                       # Per bank write bursts
system.mem_ctrls.perBankWrBursts::3                 0                       # Per bank write bursts
system.mem_ctrls.perBankWrBursts::4                 0                       # Per bank write bursts
system.mem_ctrls.perBankWrBursts::5                 0                       # Per bank write bursts
system.mem_ctrls.perBankWrBursts::6                 0                       # Per bank write bursts
system.mem_ctrls.perBankWrBursts::7                 0                       # Per bank write bursts
system.mem_ctrls.perBankWrBursts::8                 0                       # Per bank write bursts
system.mem_ctrls.perBankWrBursts::9                 0                       # Per bank write bursts
system.mem_ctrls.perBankWrBursts::10                0                       # Per bank write bursts
system.mem_ctrls.perBankWrBursts::11                0                       # Per bank write bursts
system.mem_ctrls.perBankWrBursts::12                0                       # Per bank write bursts
system.mem_ctrls.perBankWrBursts::13                0                       # Per bank write bursts
system.mem_ctrls.perBankWrBursts::14                0                       # Per bank write bursts
system.mem_ctrls.perBankWrBursts::15                0                       # Per bank write bursts
system.mem_ctrls.numRdRetry                         0                       # Number of times read queue was full causing retry
system.mem_ctrls.numWrRetry                         0                       # Number of times write queue was full causing retry
system.mem_ctrls.totGap                      13224000                       # Total gap between requests
system.mem_ctrls.readPktSize::0                     0                       # Read request sizes (log2)
system.mem_ctrls.readPktSize::1                     0                       # Read request sizes (log2)
system.mem_ctrls.readPktSize::2                     0                       # Read request sizes (log2)
system.mem_ctrls.readPktSize::3                     0                       # Read request sizes (log2)
system.mem_ctrls.readPktSize::4                     0                       # Read request sizes (log2)
system.mem_ctrls.readPktSize::5                     0                       # Read request sizes (log2)
system.mem_ctrls.readPktSize::6                   447                       # Read request sizes (log2)
system.mem_ctrls.writePktSize::0                    0                       # Write request sizes (log2)
system.mem_ctrls.writePktSize::1                    0                       # Write request sizes (log2)
system.mem_ctrls.writePktSize::2                    0                       # Write request sizes (log2)
system.mem_ctrls.writePktSize::3                    0                       # Write request sizes (log2)
system.mem_ctrls.writePktSize::4                    0                       # Write request sizes (log2)
system.mem_ctrls.writePktSize::5                    0                       # Write request sizes (log2)
system.mem_ctrls.writePktSize::6                    0                       # Write request sizes (log2)
system.mem_ctrls.rdQLenPdf::0                     222                       # What read queue length does an incoming req see
system.mem_ctrls.rdQLenPdf::1                     143                       # What read queue length does an incoming req see
system.mem_ctrls.rdQLenPdf::2                      57                       # What read queue length does an incoming req see
system.mem_ctrls.rdQLenPdf::3                      20                       # What read queue length does an incoming req see
system.mem_ctrls.rdQLenPdf::4                       5                       # What read queue length does an incoming req see
system.mem_ctrls.rdQLenPdf::5                       0                       # What read queue length does an incoming req see
system.mem_ctrls.rdQLenPdf::6                       0                       # What read queue length does an incoming req see
system.mem_ctrls.rdQLenPdf::7                       0                       # What read queue length does an incoming req see
system.mem_ctrls.rdQLenPdf::8                       0                       # What read queue length does an incoming req see
system.mem_ctrls.rdQLenPdf::9                       0                       # What read queue length does an incoming req see
system.mem_ctrls.rdQLenPdf::10                      0                       # What read queue length does an incoming req see
system.mem_ctrls.rdQLenPdf::11                      0                       # What read queue length does an incoming req see
system.mem_ctrls.rdQLenPdf::12                      0                       # What read queue length does an incoming req see
system.mem_ctrls.rdQLenPdf::13                      0                       # What read queue length does an incoming req see
system.mem_ctrls.rdQLenPdf::14                      0                       # What read queue length does an incoming req see
system.mem_ctrls.rdQLenPdf::15                      0                       # What read queue length does an incoming req see
system.mem_ctrls.rdQLenPdf::16                      0                       # What read queue length does an incoming req see
system.mem_ctrls.rdQLenPdf::17                      0                       # What read queue length does an incoming req see
system.mem_ctrls.rdQLenPdf::18                      0                       # What read queue length does an incoming req see
system.mem_ctrls.rdQLenPdf::19                      0                       # What read queue length does an incoming req see
system.mem_ctrls.rdQLenPdf::20                      0                       # What read queue length does an incoming req see
system.mem_ctrls.rdQLenPdf::21                      0                       # What read queue length does an incoming req see
system.mem_ctrls.rdQLenPdf::22                      0                       # What read queue length does an incoming req see
system.mem_ctrls.rdQLenPdf::23                      0                       # What read queue length does an incoming req see
system.mem_ctrls.rdQLenPdf::24                      0                       # What read queue length does an incoming req see
system.mem_ctrls.rdQLenPdf::25                      0                       # What read queue length does an incoming req see
system.mem_ctrls.rdQLenPdf::26                      0                       # What read queue length does an incoming req see
system.mem_ctrls.rdQLenPdf::27                      0                       # What read queue length does an incoming req see
system.mem_ctrls.rdQLenPdf::28                      0                       # What read queue length does an incoming req see
system.mem_ctrls.rdQLenPdf::29                      0                       # What read queue length does an incoming req see
system.mem_ctrls.rdQLenPdf::30                      0                       # What read queue length does an incoming req see
system.mem_ctrls.rdQLenPdf::31                      0                       # What read queue length does an incoming req see
system.mem_ctrls.wrQLenPdf::0                       0                       # What write queue length does an incoming req see
system.mem_ctrls.wrQLenPdf::1                       0                       # What write queue length does an incoming req see
system.mem_ctrls.wrQLenPdf::2                       0                       # What write queue length does an incoming req see
system.mem_ctrls.wrQLenPdf::3                       0                       # What write queue length does an incoming req see
system.mem_ctrls.wrQLenPdf::4                       0                       # What write queue length does an incoming req see
system.mem_ctrls.wrQLenPdf::5                       0                       # What write queue length does an incoming req see
system.mem_ctrls.wrQLenPdf::6                       0                       # What write queue length does an incoming req see
system.mem_ctrls.wrQLenPdf::7                       0                       # What write queue length does an incoming req see
system.mem_ctrls.wrQLenPdf::8                       0                       # What write queue length does an incoming req see
system.mem_ctrls.wrQLenPdf::9                       0                       # What write queue length does an incoming req see
system.mem_ctrls.wrQLenPdf::10                      0                       # What write queue length does an incoming req see
system.mem_ctrls.wrQLenPdf::11                      0                       # What write queue length does an incoming req see
system.mem_ctrls.wrQLenPdf::12                      0                       # What write queue length does an incoming req see
system.mem_ctrls.wrQLenPdf::13                      0                       # What write queue length does an incoming req see
system.mem_ctrls.wrQLenPdf::14                      0                       # What write queue length does an incoming req see
system.mem_ctrls.wrQLenPdf::15                      0                       # What write queue length does an incoming req see
system.mem_ctrls.wrQLenPdf::16                      0                       # What write queue length does an incoming req see
system.mem_ctrls.wrQLenPdf::17                      0                       # What write queue length does an incoming req see
system.mem_ctrls.wrQLenPdf::18                      0                       # What write queue length does an incoming req see
system.mem_ctrls.wrQLenPdf::19                      0                       # What write queue length does an incoming req see
system.mem_ctrls.wrQLenPdf::20                      0                       # What write queue length does an incoming req see
system.mem_ctrls.wrQLenPdf::21                      0                       # What write queue length does an incoming req see
system.mem_ctrls.wrQLenPdf::22                      0                       # What write queue length does an incoming req see
system.mem_ctrls.wrQLenPdf::23                      0                       # What write queue length does an incoming req see
system.mem_ctrls.wrQLenPdf::24                      0                       # What write queue length does an incoming req see
system.mem_ctrls.wrQLenPdf::25                      0                       # What write queue length does an incoming req see
system.mem_ctrls.wrQLenPdf::26                      0                       # What write queue length does an incoming req see
system.mem_ctrls.wrQLenPdf::27                      0                       # What write queue length does an incoming req see
system.mem_ctrls.wrQLenPdf::28                      0                       # What write queue length does an incoming req see
system.mem_ctrls.wrQLenPdf::29                      0                       # What write queue length does an incoming req see
system.mem_ctrls.wrQLenPdf::30                      0                       # What write queue length does an incoming req see
system.mem_ctrls.wrQLenPdf::31                      0                       # What write queue length does an incoming req see
system.mem_ctrls.wrQLenPdf::32                      0                       # What write queue length does an incoming req see
system.mem_ctrls.wrQLenPdf::33                      0                       # What write queue length does an incoming req see
system.mem_ctrls.wrQLenPdf::34                      0                       # What write queue length does an incoming req see
system.mem_ctrls.wrQLenPdf::35                      0                       # What write queue length does an incoming req see
system.mem_ctrls.wrQLenPdf::36                      0                       # What write queue length does an incoming req see
system.mem_ctrls.wrQLenPdf::37                      0                       # What write queue length does an incoming req see
system.mem_ctrls.wrQLenPdf::38                      0                       # What write queue length does an incoming req see
system.mem_ctrls.wrQLenPdf::39                      0                       # What write queue length does an incoming req see
system.mem_ctrls.wrQLenPdf::40                      0                       # What write queue length does an incoming req see
system.mem_ctrls.wrQLenPdf::41                      0                       # What write queue length does an incoming req see
system.mem_ctrls.wrQLenPdf::42                      0                       # What write queue length does an incoming req see
system.mem_ctrls.wrQLenPdf::43                      0                       # What write queue length does an incoming req see
system.mem_ctrls.wrQLenPdf::44                      0                       # What write queue length does an incoming req see
system.mem_ctrls.wrQLenPdf::45                      0                       # What write queue length does an incoming req see
system.mem_ctrls.wrQLenPdf::46                      0                       # What write queue length does an incoming req see
system.mem_ctrls.wrQLenPdf::47                      0                       # What write queue length does an incoming req see
system.mem_ctrls.wrQLenPdf::48                      0                       # What write queue length does an incoming req see
system.mem_ctrls.wrQLenPdf::49                      0                       # What write queue length does an incoming req see
system.mem_ctrls.wrQLenPdf::50                      0                       # What write queue length does an incoming req see
system.mem_ctrls.wrQLenPdf::51                      0                       # What write queue length does an incoming req see
system.mem_ctrls.wrQLenPdf::52                      0                       # What write queue length does an incoming req see
system.mem_ctrls.wrQLenPdf::53                      0                       # What write queue length does an incoming req see
system.mem_ctrls.wrQLenPdf::54                      0                       # What write queue length does an incoming req see
system.mem_ctrls.wrQLenPdf::55                      0                       # What write queue length does an incoming req see
system.mem_ctrls.wrQLenPdf::56                      0                       # What write queue length does an incoming req see
system.mem_ctrls.wrQLenPdf::57                      0                       # What write queue length does an incoming req see
system.mem_ctrls.wrQLenPdf::58                      0                       # What write queue length does an incoming req see
system.mem_ctrls.wrQLenPdf::59                      0                       # What write queue length does an incoming req see
system.mem_ctrls.wrQLenPdf::60                      0                       # What write queue length does an incoming req see
system.mem_ctrls.wrQLenPdf::61                      0                       # What write queue length does an incoming req see
system.mem_ctrls.wrQLenPdf::62                      0                       # What write queue length does an incoming req see
system.mem_ctrls.wrQLenPdf::63                      0                       # What write queue length does an incoming req see
system.mem_ctrls.bytesPerActivate::samples           54                       # Bytes accessed per row activation
system.mem_ctrls.bytesPerActivate::mean    477.629630                       # Bytes accessed per row activation
system.mem_ctrls.bytesPerActivate::gmean   331.807828                       # Bytes accessed per row activation
system.mem_ctrls.bytesPerActivate::stdev   360.265327                       # Bytes accessed per row activation
system.mem_ctrls.bytesPerActivate::0-127            7     12.96%     12.96% # Bytes accessed per row activation
system.mem_ctrls.bytesPerActivate::128-255           13     24.07%     37.04% # Bytes accessed per row activation
system.mem_ctrls.bytesPerActivate::256-383            7     12.96%     50.00% # Bytes accessed per row activation
system.mem_ctrls.bytesPerActivate::384-511            5      9.26%     59.26% # Bytes accessed per row activation
system.mem_ctrls.bytesPerActivate::512-639            2      3.70%     62.96% # Bytes accessed per row activation
system.mem_ctrls.bytesPerActivate::640-767            4      7.41%     70.37% # Bytes accessed per row activation
system.mem_ctrls.bytesPerActivate::768-895            4      7.41%     77.78% # Bytes accessed per row activation
system.mem_ctrls.bytesPerActivate::1024-1151           12     22.22%    100.00% # Bytes accessed per row activation
system.mem_ctrls.bytesPerActivate::total           54                       # Bytes accessed per row activation
system.mem_ctrls.totQLat                      2906000                       # Total ticks spent queuing
system.mem_ctrls.totMemAccLat                11287250                       # Total ticks spent from burst creation until serviced by the DRAM
system.mem_ctrls.totBusLat                    2235000                       # Total ticks spent in databus transfers
system.mem_ctrls.avgQLat                      6501.12                       # Average queueing delay per DRAM burst
system.mem_ctrls.avgBusLat                    5000.00                       # Average bus latency per DRAM burst
system.mem_ctrls.avgMemAccLat                25251.12                       # Average memory access latency per DRAM burst
system.mem_ctrls.avgRdBW                      2155.76                       # Average DRAM read bandwidth in MiByte/s
system.mem_ctrls.avgWrBW                         0.00                       # Average achieved write bandwidth in MiByte/s
system.mem_ctrls.avgRdBWSys                   2155.76                       # Average system read bandwidth in MiByte/s
system.mem_ctrls.avgWrBWSys                      0.00                       # Average system write bandwidth in MiByte/s
system.mem_ctrls.peakBW                      12800.00                       # Theoretical peak bandwidth in MiByte/s
system.mem_ctrls.busUtil                        16.84                       # Data bus utilization in percentage
system.mem_ctrls.busUtilRead                    16.84                       # Data bus utilization in percentage for reads
system.mem_ctrls.busUtilWrite                    0.00                       # Data bus utilization in percentage for writes
system.mem_ctrls.avgRdQLen                       1.87                       # Average read queue length when enqueuing
system.mem_ctrls.avgWrQLen                       0.00                       # Average write queue length when enqueuing
system.mem_ctrls.readRowHits                      380                       # Number of row buffer hits during reads
system.mem_ctrls.writeRowHits                       0                       # Number of row buffer hits during writes
system.mem_ctrls.readRowHitRate                 85.01                       # Row buffer hit rate for reads
system.mem_ctrls.writeRowHitRate                  nan                       # Row buffer hit rate for writes
system.mem_ctrls.avgGap                      29583.89                       # Average gap between requests
system.mem_ctrls.pageHitRate                    85.01                       # Row buffer hit rate, read and write combined
system.mem_ctrls.memoryStateTime::IDLE           1000                       # Time in different power states
system.mem_ctrls.memoryStateTime::REF          260000                       # Time in different power states
system.mem_ctrls.memoryStateTime::PRE_PDN            0                       # Time in different power states
system.mem_ctrls.memoryStateTime::ACT         7799000                       # Time in different power states
system.mem_ctrls.memoryStateTime::ACT_PDN            0                       # Time in different power states
system.membus.trans_dist::ReadReq                 405                       # Transaction distribution
system.membus.trans_dist::ReadResp                405                       # Transaction distribution
system.membus.trans_dist::ReadExReq                42                       # Transaction distribution
system.membus.trans_dist::ReadExResp               42                       # Transaction distribution
system.membus.pkt_count_system.cpu.icache.mem_side::system.mem_ctrls.port          598                       # Packet count per connected master and slave (bytes)
system.membus.pkt_count_system.cpu.dcache.mem_side::system.mem_ctrls.port          296                       # Packet count per connected master and slave (bytes)
system.membus.pkt_count::total                    894                       # Packet count per connected master and slave (bytes)
system.membus.pkt_size_system.cpu.icache.mem_side::system.mem_ctrls.port        19136                       # Cumulative packet size per connected master and slave (bytes)
system.membus.pkt_size_system.cpu.dcache.mem_side::system.mem_ctrls.port         9472                       # Cumulative packet size per connected master and slave (bytes)
system.membus.pkt_size::total                   28608                       # Cumulative packet size per connected master and slave (bytes)
system.membus.snoops                                0                       # Total snoops (count)
system.membus.snoop_fanout::samples               447                       # Request fanout histogram
system.membus.snoop_fanout::mean                    5                       # Request fanout histogram
system.membus.snoop_fanout::stdev                   0                       # Request fanout histogram
system.membus.snoop_fanout::underflows              0      0.00%      0.00% # Request fanout histogram
system.membus.snoop_fanout::0                       0      0.00%      0.00% # Request fanout histogram
system.membus.snoop_fanout::1                       0      0.00%      0.00% # Request fanout histogram
system.membus.snoop_fanout::2                       0      0.00%      0.00% # Request fanout histogram
system.membus.snoop_fanout::3                       0      0.00%      0.00% # Request fanout histogram
system.membus.snoop_fanout::4                       0      0.00%      0.00% # Request fanout histogram
system.membus.snoop_fanout::5                     447    100.00%    100.00% # Request fanout histogram
system.membus.snoop_fanout::6                       0      0.00%    100.00% # Request fanout histogram
system.membus.snoop_fanout::overflows               0      0.00%    100.00% # Request fanout histogram
system.membus.snoop_fanout::min_value               5                       # Request fanout histogram
system.membus.snoop_fanout::max_value               5                       # Request fanout histogram
system.membus.snoop_fanout::total                 447                       # Request fanout histogram
system.membus.reqLayer0.occupancy              537000                       # Layer occupancy (ticks)
system.membus.reqLayer0.utilization               4.0                       # Layer utilization (%)
system.membus.respLayer1.occupancy            2804000                       # Layer occupancy (ticks)
system.membus.respLayer1.utilization             21.1                       # Layer utilization (%)
system.membus.respLayer2.occupancy            1377750                       # Layer occupancy (ticks)
system.membus.respLayer2.utilization             10.4                       # Layer utilization (%)
system.cpu_voltage_domain.voltage                   1                       # Voltage in Volts
system.cpu_clk_domain.clock                       500                       # Clock period in ticks
system.cpu.branchPred.lookups                    3034                       # Number of BP lookups
system.cpu.branchPred.condPredicted              1942                       # Number of conditional branches predicted
system.cpu.branchPred.condIncorrect               510                       # Number of conditional branches incorrect
system.cpu.branchPred.BTBLookups                 2380                       # Number of BTB lookups
system.cpu.branchPred.BTBHits                     931                       # Number of BTB hits
system.cpu.branchPred.BTBCorrect                    0                       # Number of correct BTB predictions (this stat may not work properly.
system.cpu.branchPred.BTBHitPct             39.117647                       # BTB Hit Percentage
system.cpu.branchPred.usedRAS                     376                       # Number of times the RAS was used to get a target.
system.cpu.branchPred.RASInCorrect                 68                       # Number of incorrect RAS predictions.
system.cpu.dstage2_mmu.stage2_tlb.inst_hits            0                       # ITB inst hits
system.cpu.dstage2_mmu.stage2_tlb.inst_misses            0                       # ITB inst misses
system.cpu.dstage2_mmu.stage2_tlb.read_hits            0                       # DTB read hits
system.cpu.dstage2_mmu.stage2_tlb.read_misses            0                       # DTB read misses
system.cpu.dstage2_mmu.stage2_tlb.write_hits            0                       # DTB write hits
system.cpu.dstage2_mmu.stage2_tlb.write_misses            0                       # DTB write misses
system.cpu.dstage2_mmu.stage2_tlb.flush_tlb            0                       # Number of times complete TLB was flushed
system.cpu.dstage2_mmu.stage2_tlb.flush_tlb_mva            0                       # Number of times TLB was flushed by MVA
system.cpu.dstage2_mmu.stage2_tlb.flush_tlb_mva_asid            0                       # Number of times TLB was flushed by MVA & ASID
system.cpu.dstage2_mmu.stage2_tlb.flush_tlb_asid            0                       # Number of times TLB was flushed by ASID
system.cpu.dstage2_mmu.stage2_tlb.flush_entries            0                       # Number of entries that have been flushed from TLB
system.cpu.dstage2_mmu.stage2_tlb.align_faults            0                       # Number of TLB faults due to alignment restrictions
system.cpu.dstage2_mmu.stage2_tlb.prefetch_faults            0                       # Number of TLB faults due to prefetch
system.cpu.dstage2_mmu.stage2_tlb.domain_faults            0                       # Number of TLB faults due to domain restrictions
system.cpu.dstage2_mmu.stage2_tlb.perms_faults            0                       # Number of TLB faults due to permissions restrictions
system.cpu.dstage2_mmu.stage2_tlb.read_accesses            0                       # DTB read accesses
system.cpu.dstage2_mmu.stage2_tlb.write_accesses            0                       # DTB write accesses
system.cpu.dstage2_mmu.stage2_tlb.inst_accesses            0                       # ITB inst accesses
system.cpu.dstage2_mmu.stage2_tlb.hits              0                       # DTB hits
system.cpu.dstage2_mmu.stage2_tlb.misses            0                       # DTB misses
system.cpu.dstage2_mmu.stage2_tlb.accesses            0                       # DTB accesses
system.cpu.dtb.inst_hits                            0                       # ITB inst hits
system.cpu.dtb.inst_misses                          0                       # ITB inst misses
system.cpu.dtb.read_hits                            0                       # DTB read hits
system.cpu.dtb.read_misses                          0                       # DTB read misses
system.cpu.dtb.write_hits                           0                       # DTB write hits
system.cpu.dtb.write_misses                         0                       # DTB write misses
system.cpu.dtb.flush_tlb                            0                       # Number of times complete TLB was flushed
system.cpu.dtb.flush_tlb_mva                        0                       # Number of times TLB was flushed by MVA
system.cpu.dtb.flush_tlb_mva_asid                   0                       # Number of times TLB was flushed by MVA & ASID
system.cpu.dtb.flush_tlb_asid                       0                       # Number of times TLB was flushed by ASID
system.cpu.dtb.flush_entries                        0                       # Number of entries that have been flushed from TLB
system.cpu.dtb.align_faults                         0                       # Number of TLB faults due to alignment restrictions
system.cpu.dtb.prefetch_faults                      0                       # Number of TLB faults due to prefetch
system.cpu.dtb.domain_faults                        0                       # Number of TLB faults due to domain restrictions
system.cpu.dtb.perms_faults                         0                       # Number of TLB faults due to permissions restrictions
system.cpu.dtb.read_accesses                        0                       # DTB read accesses
system.cpu.dtb.write_accesses                       0                       # DTB write accesses
system.cpu.dtb.inst_accesses                        0                       # ITB inst accesses
system.cpu.dtb.hits                                 0                       # DTB hits
system.cpu.dtb.misses                               0                       # DTB misses
system.cpu.dtb.accesses                             0                       # DTB accesses
system.cpu.istage2_mmu.stage2_tlb.inst_hits            0                       # ITB inst hits
system.cpu.istage2_mmu.stage2_tlb.inst_misses            0                       # ITB inst misses
system.cpu.istage2_mmu.stage2_tlb.read_hits            0                       # DTB read hits
system.cpu.istage2_mmu.stage2_tlb.read_misses            0                       # DTB read misses
system.cpu.istage2_mmu.stage2_tlb.write_hits            0                       # DTB write hits
system.cpu.istage2_mmu.stage2_tlb.write_misses            0                       # DTB write misses
system.cpu.istage2_mmu.stage2_tlb.flush_tlb            0                       # Number of times complete TLB was flushed
system.cpu.istage2_mmu.stage2_tlb.flush_tlb_mva            0                       # Number of times TLB was flushed by MVA
system.cpu.istage2_mmu.stage2_tlb.flush_tlb_mva_asid            0                       # Number of times TLB was flushed by MVA & ASID
system.cpu.istage2_mmu.stage2_tlb.flush_tlb_asid            0                       # Number of times TLB was flushed by ASID
system.cpu.istage2_mmu.stage2_tlb.flush_entries            0                       # Number of entries that have been flushed from TLB
system.cpu.istage2_mmu.stage2_tlb.align_faults            0                       # Number of TLB faults due to alignment restrictions
system.cpu.istage2_mmu.stage2_tlb.prefetch_faults            0                       # Number of TLB faults due to prefetch
system.cpu.istage2_mmu.stage2_tlb.domain_faults            0                       # Number of TLB faults due to domain restrictions
system.cpu.istage2_mmu.stage2_tlb.perms_faults            0                       # Number of TLB faults due to permissions restrictions
system.cpu.istage2_mmu.stage2_tlb.read_accesses            0                       # DTB read accesses
system.cpu.istage2_mmu.stage2_tlb.write_accesses            0                       # DTB write accesses
system.cpu.istage2_mmu.stage2_tlb.inst_accesses            0                       # ITB inst accesses
system.cpu.istage2_mmu.stage2_tlb.hits              0                       # DTB hits
system.cpu.istage2_mmu.stage2_tlb.misses            0                       # DTB misses
system.cpu.istage2_mmu.stage2_tlb.accesses            0                       # DTB accesses
system.cpu.itb.inst_hits                            0                       # ITB inst hits
system.cpu.itb.inst_misses                          0                       # ITB inst misses
system.cpu.itb.read_hits                            0                       # DTB read hits
system.cpu.itb.read_misses                          0                       # DTB read misses
system.cpu.itb.write_hits                           0                       # DTB write hits
system.cpu.itb.write_misses                         0                       # DTB write misses
system.cpu.itb.flush_tlb                            0                       # Number of times complete TLB was flushed
system.cpu.itb.flush_tlb_mva                        0                       # Number of times TLB was flushed by MVA
system.cpu.itb.flush_tlb_mva_asid                   0                       # Number of times TLB was flushed by MVA & ASID
system.cpu.itb.flush_tlb_asid                       0                       # Number of times TLB was flushed by ASID
system.cpu.itb.flush_entries                        0                       # Number of entries that have been flushed from TLB
system.cpu.itb.align_faults                         0                       # Number of TLB faults due to alignment restrictions
system.cpu.itb.prefetch_faults                      0                       # Number of TLB faults due to prefetch
system.cpu.itb.domain_faults                        0                       # Number of TLB faults due to domain restrictions
system.cpu.itb.perms_faults                         0                       # Number of TLB faults due to permissions restrictions
system.cpu.itb.read_accesses                        0                       # DTB read accesses
system.cpu.itb.write_accesses                       0                       # DTB write accesses
system.cpu.itb.inst_accesses                        0                       # ITB inst accesses
system.cpu.itb.hits                                 0                       # DTB hits
system.cpu.itb.misses                               0                       # DTB misses
system.cpu.itb.accesses                             0                       # DTB accesses
system.cpu.workload.num_syscalls                   12                       # Number of system calls
system.cpu.numCycles                            26542                       # number of cpu cycles simulated
system.cpu.numWorkItemsStarted                      0                       # number of work items this cpu started
system.cpu.numWorkItemsCompleted                    0                       # number of work items this cpu completed
system.cpu.fetch.icacheStallCycles               8131                       # Number of cycles fetch is stalled on an Icache miss
system.cpu.fetch.Insts                          14149                       # Number of instructions fetch has processed
system.cpu.fetch.Branches                        3034                       # Number of branches that fetch encountered
system.cpu.fetch.predictedBranches               1307                       # Number of branches that fetch has predicted taken
system.cpu.fetch.Cycles                          5354                       # Number of cycles fetch has run and was not squashing or blocked
system.cpu.fetch.SquashCycles                    1072                       # Number of cycles fetch has spent squashing
system.cpu.fetch.MiscStallCycles                    2                       # Number of cycles fetch has spent waiting on interrupts, or bad addresses, or out of MSHRs
system.cpu.fetch.PendingTrapStallCycles           228                       # Number of stall cycles due to pending traps
system.cpu.fetch.IcacheWaitRetryStallCycles           17                       # Number of stall cycles due to full MSHR
system.cpu.fetch.CacheLines                      2258                       # Number of cache lines fetched
system.cpu.fetch.IcacheSquashes                   325                       # Number of outstanding Icache misses that were squashed
system.cpu.fetch.rateDist::samples              14268                       # Number of instructions fetched each cycle (Total)
system.cpu.fetch.rateDist::mean              1.159097                       # Number of instructions fetched each cycle (Total)
system.cpu.fetch.rateDist::stdev             2.534971                       # Number of instructions fetched each cycle (Total)
system.cpu.fetch.rateDist::underflows               0      0.00%      0.00% # Number of instructions fetched each cycle (Total)
system.cpu.fetch.rateDist::0                    11256     78.89%     78.89% # Number of instructions fetched each cycle (Total)
system.cpu.fetch.rateDist::1                      299      2.10%     80.99% # Number of instructions fetched each cycle (Total)
system.cpu.fetch.rateDist::2                      272      1.91%     82.89% # Number of instructions fetched each cycle (Total)
system.cpu.fetch.rateDist::3                      274      1.92%     84.81% # Number of instructions fetched each cycle (Total)
system.cpu.fetch.rateDist::4                      254      1.78%     86.59% # Number of instructions fetched each cycle (Total)
system.cpu.fetch.rateDist::5                      316      2.21%     88.81% # Number of instructions fetched each cycle (Total)
system.cpu.fetch.rateDist::6                      155      1.09%     89.89% # Number of instructions fetched each cycle (Total)
system.cpu.fetch.rateDist::7                      189      1.32%     91.22% # Number of instructions fetched each cycle (Total)
system.cpu.fetch.rateDist::8                     1253      8.78%    100.00% # Number of instructions fetched each cycle (Total)
system.cpu.fetch.rateDist::overflows                0      0.00%    100.00% # Number of instructions fetched each cycle (Total)
system.cpu.fetch.rateDist::min_value                0                       # Number of instructions fetched each cycle (Total)
system.cpu.fetch.rateDist::max_value                8                       # Number of instructions fetched each cycle (Total)
system.cpu.fetch.rateDist::total                14268                       # Number of instructions fetched each cycle (Total)
system.cpu.fetch.branchRate                  0.114309                       # Number of branch fetches per cycle
system.cpu.fetch.rate                        0.533080                       # Number of inst fetches per cycle
system.cpu.decode.IdleCycles                     6929                       # Number of cycles decode is idle
system.cpu.decode.BlockedCycles                  4407                       # Number of cycles decode is blocked
system.cpu.decode.RunCycles                      2398                       # Number of cycles decode is running
system.cpu.decode.UnblockCycles                   158                       # Number of cycles decode is unblocking
system.cpu.decode.SquashCycles                    376                       # Number of cycles decode is squashing
system.cpu.decode.BranchResolved                  450                       # Number of times decode resolved a branch
system.cpu.decode.BranchMispred                   169                       # Number of times decode detected a branch misprediction
system.cpu.decode.DecodedInsts                  13690                       # Number of instructions handled by decode
system.cpu.decode.SquashedInsts                   483                       # Number of squashed instructions handled by decode
system.cpu.rename.SquashCycles                    376                       # Number of cycles rename is squashing
system.cpu.rename.IdleCycles                     7158                       # Number of cycles rename is idle
system.cpu.rename.BlockCycles                     883                       # Number of cycles rename is blocking
system.cpu.rename.serializeStallCycles           2763                       # count of cycles rename stalled for serializing inst
system.cpu.rename.RunCycles                      2314                       # Number of cycles rename is running
system.cpu.rename.UnblockCycles                   774                       # Number of cycles rename is unblocking
system.cpu.rename.RenamedInsts                  12948                       # Number of instructions processed by rename
system.cpu.rename.ROBFullEvents                     5                       # Number of times rename has blocked due to ROB full
system.cpu.rename.IQFullEvents                    108                       # Number of times rename has blocked due to IQ full
system.cpu.rename.LQFullEvents                     86                       # Number of times rename has blocked due to LQ full
system.cpu.rename.SQFullEvents                    634                       # Number of times rename has blocked due to SQ full
system.cpu.rename.RenamedOperands               13392                       # Number of destination operands rename has renamed
system.cpu.rename.RenameLookups                 59191                       # Number of register rename lookups that rename has made
system.cpu.rename.int_rename_lookups            14266                       # Number of integer rename lookups
system.cpu.rename.fp_rename_lookups                96                       # Number of floating rename lookups
system.cpu.rename.CommittedMaps                  5949                       # Number of HB maps that are committed
system.cpu.rename.UndoneMaps                     7424                       # Number of HB maps that are undone due to squashing
system.cpu.rename.serializingInsts                 40                       # count of serializing insts renamed
system.cpu.rename.tempSerializingInsts             35                       # count of temporary serializing insts renamed
system.cpu.rename.skidInsts                       437                       # count of insts added to the skid buffer
system.cpu.memDep0.insertedLoads                 2516                       # Number of loads inserted to the mem dependence unit.
system.cpu.memDep0.insertedStores                1705                       # Number of stores inserted to the mem dependence unit.
system.cpu.memDep0.conflictingLoads                32                       # Number of conflicting loads.
system.cpu.memDep0.conflictingStores               31                       # Number of conflicting stores.
system.cpu.iq.iqInstsAdded                      11550                       # Number of instructions added to the IQ (excludes non-spec)
system.cpu.iq.iqNonSpecInstsAdded                  44                       # Number of non-speculative instructions added to the IQ
system.cpu.iq.iqInstsIssued                      9158                       # Number of instructions issued
system.cpu.iq.iqSquashedInstsIssued                46                       # Number of squashed instructions issued
system.cpu.iq.iqSquashedInstsExamined            5499                       # Number of squashed instructions iterated over during squash; mainly for profiling
system.cpu.iq.iqSquashedOperandsExamined        14907                       # Number of squashed operands that are examined and possibly removed from graph
system.cpu.iq.iqSquashedNonSpecRemoved              8                       # Number of squashed non-spec instructions that were removed
system.cpu.iq.issued_per_cycle::samples         14268                       # Number of insts issued each cycle
system.cpu.iq.issued_per_cycle::mean         0.641856                       # Number of insts issued each cycle
system.cpu.iq.issued_per_cycle::stdev        1.402565                       # Number of insts issued each cycle
system.cpu.iq.issued_per_cycle::underflows            0      0.00%      0.00% # Number of insts issued each cycle
system.cpu.iq.issued_per_cycle::0               10759     75.41%     75.41% # Number of insts issued each cycle
system.cpu.iq.issued_per_cycle::1                1241      8.70%     84.10% # Number of insts issued each cycle
system.cpu.iq.issued_per_cycle::2                 785      5.50%     89.61% # Number of insts issued each cycle
system.cpu.iq.issued_per_cycle::3                 530      3.71%     93.32% # Number of insts issued each cycle
system.cpu.iq.issued_per_cycle::4                 379      2.66%     95.98% # Number of insts issued each cycle
system.cpu.iq.issued_per_cycle::5                 325      2.28%     98.25% # Number of insts issued each cycle
system.cpu.iq.issued_per_cycle::6                 154      1.08%     99.33% # Number of insts issued each cycle
system.cpu.iq.issued_per_cycle::7                  68      0.48%     99.81% # Number of insts issued each cycle
system.cpu.iq.issued_per_cycle::8                  27      0.19%    100.00% # Number of insts issued each cycle
system.cpu.iq.issued_per_cycle::overflows            0      0.00%    100.00% # Number of insts issued each cycle
system.cpu.iq.issued_per_cycle::min_value            0                       # Number of insts issued each cycle
system.cpu.iq.issued_per_cycle::max_value            8                       # Number of insts issued each cycle
system.cpu.iq.issued_per_cycle::total           14268                       # Number of insts issued each cycle
system.cpu.iq.fu_full::No_OpClass                   0      0.00%      0.00% # attempts to use FU when none available
system.cpu.iq.fu_full::IntAlu                      24     12.83%     12.83% # attempts to use FU when none available
system.cpu.iq.fu_full::IntMult                      0      0.00%     12.83% # attempts to use FU when none available
system.cpu.iq.fu_full::IntDiv                       0      0.00%     12.83% # attempts to use FU when none available
system.cpu.iq.fu_full::FloatAdd                     0      0.00%     12.83% # attempts to use FU when none available
system.cpu.iq.fu_full::FloatCmp                     0      0.00%     12.83% # attempts to use FU when none available
system.cpu.iq.fu_full::FloatCvt                     0      0.00%     12.83% # attempts to use FU when none available
system.cpu.iq.fu_full::FloatMult                    0      0.00%     12.83% # attempts to use FU when none available
system.cpu.iq.fu_full::FloatDiv                     0      0.00%     12.83% # attempts to use FU when none available
system.cpu.iq.fu_full::FloatSqrt                    0      0.00%     12.83% # attempts to use FU when none available
system.cpu.iq.fu_full::SimdAdd                      0      0.00%     12.83% # attempts to use FU when none available
system.cpu.iq.fu_full::SimdAddAcc                   0      0.00%     12.83% # attempts to use FU when none available
system.cpu.iq.fu_full::SimdAlu                      0      0.00%     12.83% # attempts to use FU when none available
system.cpu.iq.fu_full::SimdCmp                      0      0.00%     12.83% # attempts to use FU when none available
system.cpu.iq.fu_full::SimdCvt                      0      0.00%     12.83% # attempts to use FU when none available
system.cpu.iq.fu_full::SimdMisc                     0      0.00%     12.83% # attempts to use FU when none available
system.cpu.iq.fu_full::SimdMult                     0      0.00%     12.83% # attempts to use FU when none available
system.cpu.iq.fu_full::SimdMultAcc                  0      0.00%     12.83% # attempts to use FU when none available
system.cpu.iq.fu_full::SimdShift                    0      0.00%     12.83% # attempts to use FU when none available
system.cpu.iq.fu_full::SimdShiftAcc                 0      0.00%     12.83% # attempts to use FU when none available
system.cpu.iq.fu_full::SimdSqrt                     0      0.00%     12.83% # attempts to use FU when none available
system.cpu.iq.fu_full::SimdFloatAdd                 0      0.00%     12.83% # attempts to use FU when none available
system.cpu.iq.fu_full::SimdFloatAlu                 0      0.00%     12.83% # attempts to use FU when none available
system.cpu.iq.fu_full::SimdFloatCmp                 0      0.00%     12.83% # attempts to use FU when none available
system.cpu.iq.fu_full::SimdFloatCvt                 0      0.00%     12.83% # attempts to use FU when none available
system.cpu.iq.fu_full::SimdFloatDiv                 0      0.00%     12.83% # attempts to use FU when none available
system.cpu.iq.fu_full::SimdFloatMisc                0      0.00%     12.83% # attempts to use FU when none available
system.cpu.iq.fu_full::SimdFloatMult                0      0.00%     12.83% # attempts to use FU when none available
system.cpu.iq.fu_full::SimdFloatMultAcc             0      0.00%     12.83% # attempts to use FU when none available
system.cpu.iq.fu_full::SimdFloatSqrt                0      0.00%     12.83% # attempts to use FU when none available
system.cpu.iq.fu_full::MemRead                     84     44.92%     57.75% # attempts to use FU when none available
system.cpu.iq.fu_full::MemWrite                    79     42.25%    100.00% # attempts to use FU when none available
system.cpu.iq.fu_full::IprAccess                    0      0.00%    100.00% # attempts to use FU when none available
system.cpu.iq.fu_full::InstPrefetch                 0      0.00%    100.00% # attempts to use FU when none available
system.cpu.iq.FU_type_0::No_OpClass                 0      0.00%      0.00% # Type of FU issued
system.cpu.iq.FU_type_0::IntAlu                  5686     62.09%     62.09% # Type of FU issued
system.cpu.iq.FU_type_0::IntMult                    6      0.07%     62.15% # Type of FU issued
system.cpu.iq.FU_type_0::IntDiv                     0      0.00%     62.15% # Type of FU issued
system.cpu.iq.FU_type_0::FloatAdd                   0      0.00%     62.15% # Type of FU issued
system.cpu.iq.FU_type_0::FloatCmp                   0      0.00%     62.15% # Type of FU issued
system.cpu.iq.FU_type_0::FloatCvt                   0      0.00%     62.15% # Type of FU issued
system.cpu.iq.FU_type_0::FloatMult                  0      0.00%     62.15% # Type of FU issued
system.cpu.iq.FU_type_0::FloatDiv                   0      0.00%     62.15% # Type of FU issued
system.cpu.iq.FU_type_0::FloatSqrt                  0      0.00%     62.15% # Type of FU issued
system.cpu.iq.FU_type_0::SimdAdd                    0      0.00%     62.15% # Type of FU issued
system.cpu.iq.FU_type_0::SimdAddAcc                 0      0.00%     62.15% # Type of FU issued
system.cpu.iq.FU_type_0::SimdAlu                    0      0.00%     62.15% # Type of FU issued
system.cpu.iq.FU_type_0::SimdCmp                    0      0.00%     62.15% # Type of FU issued
system.cpu.iq.FU_type_0::SimdCvt                    0      0.00%     62.15% # Type of FU issued
system.cpu.iq.FU_type_0::SimdMisc                   0      0.00%     62.15% # Type of FU issued
system.cpu.iq.FU_type_0::SimdMult                   0      0.00%     62.15% # Type of FU issued
system.cpu.iq.FU_type_0::SimdMultAcc                0      0.00%     62.15% # Type of FU issued
system.cpu.iq.FU_type_0::SimdShift                  0      0.00%     62.15% # Type of FU issued
system.cpu.iq.FU_type_0::SimdShiftAcc               0      0.00%     62.15% # Type of FU issued
system.cpu.iq.FU_type_0::SimdSqrt                   0      0.00%     62.15% # Type of FU issued
system.cpu.iq.FU_type_0::SimdFloatAdd               0      0.00%     62.15% # Type of FU issued
system.cpu.iq.FU_type_0::SimdFloatAlu               0      0.00%     62.15% # Type of FU issued
system.cpu.iq.FU_type_0::SimdFloatCmp               0      0.00%     62.15% # Type of FU issued
system.cpu.iq.FU_type_0::SimdFloatCvt               0      0.00%     62.15% # Type of FU issued
system.cpu.iq.FU_type_0::SimdFloatDiv               0      0.00%     62.15% # Type of FU issued
system.cpu.iq.FU_type_0::SimdFloatMisc              3      0.03%     62.19% # Type of FU issued
system.cpu.iq.FU_type_0::SimdFloatMult              0      0.00%     62.19% # Type of FU issued
system.cpu.iq.FU_type_0::SimdFloatMultAcc            0      0.00%     62.19% # Type of FU issued
system.cpu.iq.FU_type_0::SimdFloatSqrt              0      0.00%     62.19% # Type of FU issued
system.cpu.iq.FU_type_0::MemRead                 2163     23.62%     85.80% # Type of FU issued
system.cpu.iq.FU_type_0::MemWrite                1300     14.20%    100.00% # Type of FU issued
system.cpu.iq.FU_type_0::IprAccess                  0      0.00%    100.00% # Type of FU issued
system.cpu.iq.FU_type_0::InstPrefetch               0      0.00%    100.00% # Type of FU issued
system.cpu.iq.FU_type_0::total                   9158                       # Type of FU issued
system.cpu.iq.rate                           0.345038                       # Inst issue rate
system.cpu.iq.fu_busy_cnt                         187                       # FU busy when requested
system.cpu.iq.fu_busy_rate                   0.020419                       # FU busy rate (busy events/executed inst)
system.cpu.iq.int_inst_queue_reads              32726                       # Number of integer instruction queue reads
system.cpu.iq.int_inst_queue_writes             17002                       # Number of integer instruction queue writes
system.cpu.iq.int_inst_queue_wakeup_accesses         8247                       # Number of integer instruction queue wakeup accesses
system.cpu.iq.fp_inst_queue_reads                  90                       # Number of floating instruction queue reads
system.cpu.iq.fp_inst_queue_writes                112                       # Number of floating instruction queue writes
system.cpu.iq.fp_inst_queue_wakeup_accesses           32                       # Number of floating instruction queue wakeup accesses
system.cpu.iq.int_alu_accesses                   9303                       # Number of integer alu accesses
system.cpu.iq.fp_alu_accesses                      42                       # Number of floating point alu accesses
system.cpu.iew.lsq.thread0.forwLoads               25                       # Number of loads that had data forwarded from stores
system.cpu.iew.lsq.thread0.invAddrLoads             0                       # Number of loads ignored due to an invalid address
system.cpu.iew.lsq.thread0.squashedLoads         1433                       # Number of loads squashed
system.cpu.iew.lsq.thread0.ignoredResponses            0                       # Number of memory responses ignored because the instruction is squashed
system.cpu.iew.lsq.thread0.memOrderViolation           21                       # Number of memory ordering violations
system.cpu.iew.lsq.thread0.squashedStores          755                       # Number of stores squashed
system.cpu.iew.lsq.thread0.invAddrSwpfs             0                       # Number of software prefetches ignored due to an invalid address
system.cpu.iew.lsq.thread0.blockedLoads             0                       # Number of blocked loads due to partial load-store forwarding
system.cpu.iew.lsq.thread0.rescheduledLoads           37                       # Number of loads that were rescheduled
system.cpu.iew.lsq.thread0.cacheBlocked             4                       # Number of times an access to memory failed due to the cache being blocked
system.cpu.iew.iewIdleCycles                        0                       # Number of cycles IEW is idle
system.cpu.iew.iewSquashCycles                    376                       # Number of cycles IEW is squashing
system.cpu.iew.iewBlockCycles                     782                       # Number of cycles IEW is blocking
system.cpu.iew.iewUnblockCycles                    77                       # Number of cycles IEW is unblocking
system.cpu.iew.iewDispatchedInsts               11603                       # Number of instructions dispatched to IQ
system.cpu.iew.iewDispSquashedInsts               141                       # Number of squashed instructions skipped by dispatch
system.cpu.iew.iewDispLoadInsts                  2516                       # Number of dispatched load instructions
system.cpu.iew.iewDispStoreInsts                 1705                       # Number of dispatched store instructions
system.cpu.iew.iewDispNonSpecInsts                 32                       # Number of dispatched non-speculative instructions
system.cpu.iew.iewIQFullEvents                     10                       # Number of times the IQ has become full, causing a stall
system.cpu.iew.iewLSQFullEvents                    67                       # Number of times the LSQ has become full, causing a stall
system.cpu.iew.memOrderViolationEvents             21                       # Number of memory order violations
system.cpu.iew.predictedTakenIncorrect            119                       # Number of branches that were predicted taken incorrectly
system.cpu.iew.predictedNotTakenIncorrect          279                       # Number of branches that were predicted not taken incorrectly
system.cpu.iew.branchMispredicts                  398                       # Number of branch mispredicts detected at execute
system.cpu.iew.iewExecutedInsts                  8801                       # Number of executed instructions
system.cpu.iew.iewExecLoadInsts                  2043                       # Number of load instructions executed
system.cpu.iew.iewExecSquashedInsts               356                       # Number of squashed instructions skipped in execute
system.cpu.iew.exec_swp                             0                       # number of swp insts executed
system.cpu.iew.exec_nop                             9                       # number of nop insts executed
system.cpu.iew.exec_refs                         3281                       # number of memory reference insts executed
system.cpu.iew.exec_branches                     1640                       # Number of branches executed
system.cpu.iew.exec_stores                       1238                       # Number of stores executed
system.cpu.iew.exec_rate                     0.331588                       # Inst execution rate
system.cpu.iew.wb_sent                           8437                       # cumulative count of insts sent to commit
system.cpu.iew.wb_count                          8279                       # cumulative count of insts written-back
system.cpu.iew.wb_producers                      3976                       # num instructions producing a value
system.cpu.iew.wb_consumers                      7722                       # num instructions consuming a value
system.cpu.iew.wb_penalized                         0                       # number of instrctions required to write to 'other' IQ
system.cpu.iew.wb_rate                       0.311921                       # insts written-back per cycle
system.cpu.iew.wb_fanout                     0.514893                       # average fanout of values written-back
system.cpu.iew.wb_penalized_rate                    0                       # fraction of instructions written-back that wrote to 'other' IQ
system.cpu.commit.commitSquashedInsts            5793                       # The number of squashed insts skipped by commit
system.cpu.commit.commitNonSpecStalls              36                       # The number of times commit has been forced to stall to communicate backwards
system.cpu.commit.branchMispredicts               350                       # The number of times a branch was mispredicted
system.cpu.commit.committed_per_cycle::samples        13270                       # Number of insts commited each cycle
system.cpu.commit.committed_per_cycle::mean     0.437076                       # Number of insts commited each cycle
system.cpu.commit.committed_per_cycle::stdev     1.266892                       # Number of insts commited each cycle
system.cpu.commit.committed_per_cycle::underflows            0      0.00%      0.00% # Number of insts commited each cycle
system.cpu.commit.committed_per_cycle::0        11017     83.02%     83.02% # Number of insts commited each cycle
system.cpu.commit.committed_per_cycle::1          972      7.32%     90.35% # Number of insts commited each cycle
system.cpu.commit.committed_per_cycle::2          476      3.59%     93.93% # Number of insts commited each cycle
system.cpu.commit.committed_per_cycle::3          247      1.86%     95.80% # Number of insts commited each cycle
system.cpu.commit.committed_per_cycle::4          122      0.92%     96.71% # Number of insts commited each cycle
system.cpu.commit.committed_per_cycle::5          229      1.73%     98.44% # Number of insts commited each cycle
system.cpu.commit.committed_per_cycle::6           59      0.44%     98.88% # Number of insts commited each cycle
system.cpu.commit.committed_per_cycle::7           36      0.27%     99.16% # Number of insts commited each cycle
system.cpu.commit.committed_per_cycle::8          112      0.84%    100.00% # Number of insts commited each cycle
system.cpu.commit.committed_per_cycle::overflows            0      0.00%    100.00% # Number of insts commited each cycle
system.cpu.commit.committed_per_cycle::min_value            0                       # Number of insts commited each cycle
system.cpu.commit.committed_per_cycle::max_value            8                       # Number of insts commited each cycle
system.cpu.commit.committed_per_cycle::total        13270                       # Number of insts commited each cycle
system.cpu.commit.committedInsts                 5002                       # Number of instructions committed
system.cpu.commit.committedOps                   5800                       # Number of ops (including micro ops) committed
system.cpu.commit.swp_count                         0                       # Number of s/w prefetches committed
system.cpu.commit.refs                           2028                       # Number of memory references committed
system.cpu.commit.loads                          1078                       # Number of loads committed
system.cpu.commit.membars                          12                       # Number of memory barriers committed
system.cpu.commit.branches                       1102                       # Number of branches committed
system.cpu.commit.fp_insts                         16                       # Number of committed floating point instructions.
system.cpu.commit.int_insts                      4962                       # Number of committed integer instructions.
system.cpu.commit.function_calls                   87                       # Number of function calls committed.
system.cpu.commit.op_class_0::No_OpClass            0      0.00%      0.00% # Class of committed instruction
system.cpu.commit.op_class_0::IntAlu             3765     64.91%     64.91% # Class of committed instruction
system.cpu.commit.op_class_0::IntMult               4      0.07%     64.98% # Class of committed instruction
system.cpu.commit.op_class_0::IntDiv                0      0.00%     64.98% # Class of committed instruction
system.cpu.commit.op_class_0::FloatAdd              0      0.00%     64.98% # Class of committed instruction
system.cpu.commit.op_class_0::FloatCmp              0      0.00%     64.98% # Class of committed instruction
system.cpu.commit.op_class_0::FloatCvt              0      0.00%     64.98% # Class of committed instruction
system.cpu.commit.op_class_0::FloatMult             0      0.00%     64.98% # Class of committed instruction
system.cpu.commit.op_class_0::FloatDiv              0      0.00%     64.98% # Class of committed instruction
system.cpu.commit.op_class_0::FloatSqrt             0      0.00%     64.98% # Class of committed instruction
system.cpu.commit.op_class_0::SimdAdd               0      0.00%     64.98% # Class of committed instruction
system.cpu.commit.op_class_0::SimdAddAcc            0      0.00%     64.98% # Class of committed instruction
system.cpu.commit.op_class_0::SimdAlu               0      0.00%     64.98% # Class of committed instruction
system.cpu.commit.op_class_0::SimdCmp               0      0.00%     64.98% # Class of committed instruction
system.cpu.commit.op_class_0::SimdCvt               0      0.00%     64.98% # Class of committed instruction
system.cpu.commit.op_class_0::SimdMisc              0      0.00%     64.98% # Class of committed instruction
system.cpu.commit.op_class_0::SimdMult              0      0.00%     64.98% # Class of committed instruction
system.cpu.commit.op_class_0::SimdMultAcc            0      0.00%     64.98% # Class of committed instruction
system.cpu.commit.op_class_0::SimdShift             0      0.00%     64.98% # Class of committed instruction
system.cpu.commit.op_class_0::SimdShiftAcc            0      0.00%     64.98% # Class of committed instruction
system.cpu.commit.op_class_0::SimdSqrt              0      0.00%     64.98% # Class of committed instruction
system.cpu.commit.op_class_0::SimdFloatAdd            0      0.00%     64.98% # Class of committed instruction
system.cpu.commit.op_class_0::SimdFloatAlu            0      0.00%     64.98% # Class of committed instruction
system.cpu.commit.op_class_0::SimdFloatCmp            0      0.00%     64.98% # Class of committed instruction
system.cpu.commit.op_class_0::SimdFloatCvt            0      0.00%     64.98% # Class of committed instruction
system.cpu.commit.op_class_0::SimdFloatDiv            0      0.00%     64.98% # Class of committed instruction
system.cpu.commit.op_class_0::SimdFloatMisc            3      0.05%     65.03% # Class of committed instruction
system.cpu.commit.op_class_0::SimdFloatMult            0      0.00%     65.03% # Class of committed instruction
system.cpu.commit.op_class_0::SimdFloatMultAcc            0      0.00%     65.03% # Class of committed instruction
system.cpu.commit.op_class_0::SimdFloatSqrt            0      0.00%     65.03% # Class of committed instruction
system.cpu.commit.op_class_0::MemRead            1078     18.59%     83.62% # Class of committed instruction
system.cpu.commit.op_class_0::MemWrite            950     16.38%    100.00% # Class of committed instruction
system.cpu.commit.op_class_0::IprAccess             0      0.00%    100.00% # Class of committed instruction
system.cpu.commit.op_class_0::InstPrefetch            0      0.00%    100.00% # Class of committed instruction
system.cpu.commit.op_class_0::total              5800                       # Class of committed instruction
system.cpu.commit.bw_lim_events                   112                       # number cycles where commit BW limit reached
system.cpu.commit.bw_limited                        0                       # number of insts not committed due to BW limits
system.cpu.rob.rob_reads                        24594                       # The number of ROB reads
system.cpu.rob.rob_writes                       24208                       # The number of ROB writes
system.cpu.timesIdled                             202                       # Number of times that the entire CPU went into an idle state and unscheduled itself
system.cpu.idleCycles                           12274                       # Total number of cycles that the CPU has spent unscheduled due to idling
system.cpu.committedInsts                        5002                       # Number of Instructions Simulated
system.cpu.committedOps                          5800                       # Number of Ops (including micro ops) Simulated
system.cpu.cpi                               5.306277                       # CPI: Cycles Per Instruction
system.cpu.cpi_total                         5.306277                       # CPI: Total CPI of All Threads
system.cpu.ipc                               0.188456                       # IPC: Instructions Per Cycle
system.cpu.ipc_total                         0.188456                       # IPC: Total IPC of All Threads
system.cpu.int_regfile_reads                     8609                       # number of integer regfile reads
system.cpu.int_regfile_writes                    4783                       # number of integer regfile writes
system.cpu.fp_regfile_reads                        32                       # number of floating regfile reads
system.cpu.cc_regfile_reads                     31233                       # number of cc regfile reads
system.cpu.cc_regfile_writes                     3764                       # number of cc regfile writes
system.cpu.misc_regfile_reads                    3288                       # number of misc regfile reads
system.cpu.misc_regfile_writes                     24                       # number of misc regfile writes
system.cpu.icache.tags.replacements                46                       # number of replacements
system.cpu.icache.tags.tagsinuse           138.815200                       # Cycle average of tags in use
system.cpu.icache.tags.total_refs                 267                       # Total number of references to valid blocks.
system.cpu.icache.tags.sampled_refs                46                       # Sample count of references to valid blocks.
system.cpu.icache.tags.avg_refs              5.804348                       # Average number of references to valid blocks.
system.cpu.icache.tags.warmup_cycle                 0                       # Cycle when the warmup percentage was hit.
system.cpu.icache.tags.occ_blocks::cpu.inst   138.815200                       # Average occupied blocks per requestor
system.cpu.icache.tags.occ_percent::cpu.inst     0.271123                       # Average percentage of cache occupancy
system.cpu.icache.tags.occ_percent::total     0.271123                       # Average percentage of cache occupancy
system.cpu.icache.tags.occ_task_id_blocks::1024          253                       # Occupied blocks per task id
system.cpu.icache.tags.age_task_id_blocks_1024::0          208                       # Occupied blocks per task id
system.cpu.icache.tags.age_task_id_blocks_1024::1           45                       # Occupied blocks per task id
system.cpu.icache.tags.occ_task_id_percent::1024     0.494141                       # Percentage of cache occupancy per task id
system.cpu.icache.tags.tag_accesses              4815                       # Number of tag accesses
system.cpu.icache.tags.data_accesses             4815                       # Number of data accesses
system.cpu.icache.ReadReq_hits::cpu.inst         1868                       # number of ReadReq hits
system.cpu.icache.ReadReq_hits::total            1868                       # number of ReadReq hits
system.cpu.icache.demand_hits::cpu.inst          1868                       # number of demand (read+write) hits
system.cpu.icache.demand_hits::total             1868                       # number of demand (read+write) hits
system.cpu.icache.overall_hits::cpu.inst         1868                       # number of overall hits
system.cpu.icache.overall_hits::total            1868                       # number of overall hits
system.cpu.icache.ReadReq_misses::cpu.inst          390                       # number of ReadReq misses
system.cpu.icache.ReadReq_misses::total           390                       # number of ReadReq misses
system.cpu.icache.demand_misses::cpu.inst          390                       # number of demand (read+write) misses
system.cpu.icache.demand_misses::total            390                       # number of demand (read+write) misses
system.cpu.icache.overall_misses::cpu.inst          390                       # number of overall misses
system.cpu.icache.overall_misses::total           390                       # number of overall misses
system.cpu.icache.ReadReq_miss_latency::cpu.inst     17524750                       # number of ReadReq miss cycles
system.cpu.icache.ReadReq_miss_latency::total     17524750                       # number of ReadReq miss cycles
system.cpu.icache.demand_miss_latency::cpu.inst     17524750                       # number of demand (read+write) miss cycles
system.cpu.icache.demand_miss_latency::total     17524750                       # number of demand (read+write) miss cycles
system.cpu.icache.overall_miss_latency::cpu.inst     17524750                       # number of overall miss cycles
system.cpu.icache.overall_miss_latency::total     17524750                       # number of overall miss cycles
system.cpu.icache.ReadReq_accesses::cpu.inst         2258                       # number of ReadReq accesses(hits+misses)
system.cpu.icache.ReadReq_accesses::total         2258                       # number of ReadReq accesses(hits+misses)
system.cpu.icache.demand_accesses::cpu.inst         2258                       # number of demand (read+write) accesses
system.cpu.icache.demand_accesses::total         2258                       # number of demand (read+write) accesses
system.cpu.icache.overall_accesses::cpu.inst         2258                       # number of overall (read+write) accesses
system.cpu.icache.overall_accesses::total         2258                       # number of overall (read+write) accesses
system.cpu.icache.ReadReq_miss_rate::cpu.inst     0.172719                       # miss rate for ReadReq accesses
system.cpu.icache.ReadReq_miss_rate::total     0.172719                       # miss rate for ReadReq accesses
system.cpu.icache.demand_miss_rate::cpu.inst     0.172719                       # miss rate for demand accesses
[...]
system.cpu.iew.iewDispNonSpecInsts                  1                       # Number of dispatched non-speculative instructions
system.cpu.iew.iewIQFullEvents                      0                       # Number of times the IQ has become full, causing a stall
system.cpu.iew.iewLSQFullEvents                     0                       # Number of times the LSQ has become full, causing a stall
system.cpu.iew.memOrderViolationEvents              0                       # Number of memory order violations
system.cpu.iew.predictedTakenIncorrect              0                       # Number of branches that were predicted taken incorrectly
system.cpu.iew.predictedNotTakenIncorrect            0                       # Number of branches that were predicted not taken incorrectly
system.cpu.iew.branchMispredicts                    0                       # Number of branch mispredicts detected at execute
system.cpu.iew.iewExecutedInsts                    11                       # Number of executed instructions
system.cpu.iew.iewExecLoadInsts                     2                       # Number of load instructions executed
system.cpu.iew.iewExecSquashedInsts                 0                       # Number of squashed instructions skipped in execute
system.cpu.iew.exec_swp                             0                       # number of swp insts executed
system.cpu.iew.exec_nop                             0                       # number of nop insts executed
system.cpu.iew.exec_refs                            2                       # number of memory reference insts executed
system.cpu.iew.exec_branches                        3                       # Number of branches executed
system.cpu.iew.exec_stores                          0                       # Number of stores executed
system.cpu.iew.exec_rate                     0.550000                       # Inst execution rate
system.cpu.iew.wb_sent                             11                       # cumulative count of insts sent to commit
system.cpu.iew.wb_count                            10                       # cumulative count of insts written-back
system.cpu.iew.wb_producers                         3                       # num instructions producing a value
system.cpu.iew.wb_consumers                         5                       # num instructions consuming a value
system.cpu.iew.wb_penalized                         0                       # number of instrctions required to write to 'other' IQ
system.cpu.iew.wb_rate                       0.500000                       # insts written-back per cycle
system.cpu.iew.wb_fanout                     0.600000                       # average fanout of values written-back
system.cpu.iew.wb_penalized_rate                    0                       # fraction of instructions written-back that wrote to 'other' IQ
system.cpu.commit.commitNonSpecStalls               1                       # The number of times commit has been forced to stall to communicate backwards
system.cpu.commit.committed_per_cycle::samples           20                       # Number of insts commited each cycle
system.cpu.commit.committed_per_cycle::mean     0.500000                       # Number of insts commited each cycle
system.cpu.commit.committed_per_cycle::stdev     1.277333                       # Number of insts commited each cycle
system.cpu.commit.committed_per_cycle::underflows            0      0.00%      0.00% # Number of insts commited each cycle
system.cpu.commit.committed_per_cycle::0           16     80.00%     80.00% # Number of insts commited each cycle
system.cpu.commit.committed_per_cycle::1            2     10.00%     90.00% # Number of insts commited each cycle
system.cpu.commit.committed_per_cycle::2            0      0.00%     90.00% # Number of insts commited each cycle
system.cpu.commit.committed_per_cycle::3            1      5.00%     95.00% # Number of insts commited each cycle
system.cpu.commit.committed_per_cycle::4            0      0.00%     95.00% # Number of insts commited each cycle
system.cpu.commit.committed_per_cycle::5            1      5.00%    100.00% # Number of insts commited each cycle
system.cpu.commit.committed_per_cycle::6            0      0.00%    100.00% # Number of insts commited each cycle
system.cpu.commit.committed_per_cycle::7            0      0.00%    100.00% # Number of insts commited each cycle
system.cpu.commit.committed_per_cycle::8            0      0.00%    100.00% # Number of insts commited each cycle
system.cpu.commit.committed_per_cycle::overflows            0      0.00%    100.00% # Number of insts commited each cycle
system.cpu.commit.committed_per_cycle::min_value            0                       # Number of insts commited each cycle
system.cpu.commit.committed_per_cycle::max_value            5                       # Number of insts commited each cycle
system.cpu.commit.committed_per_cycle::total           20                       # Number of insts commited each cycle
system.cpu.commit.committedInsts                   10                       # Number of instructions committed
system.cpu.commit.committedOps                     10                       # Number of ops (including micro ops) committed
system.cpu.commit.swp_count                         0                       # Number of s/w prefetches committed
system.cpu.commit.refs                              2                       # Number of memory references committed
system.cpu.commit.loads                             2                       # Number of loads committed
system.cpu.commit.membars                           0                       # Number of memory barriers committed
system.cpu.commit.branches                          3                       # Number of branches committed
system.cpu.commit.fp_insts                          0                       # Number of committed floating point instructions.
system.cpu.commit.int_insts                         8                       # Number of committed integer instructions.
system.cpu.commit.function_calls                    1                       # Number of function calls committed.
system.cpu.commit.op_class_0::No_OpClass            0      0.00%      0.00% # Class of committed instruction
system.cpu.commit.op_class_0::IntAlu                8     80.00%     80.00% # Class of committed instruction
system.cpu.commit.op_class_0::IntMult               0      0.00%     80.00% # Class of committed instruction
system.cpu.commit.op_class_0::IntDiv                0      0.00%     80.00% # Class of committed instruction
system.cpu.commit.op_class_0::FloatAdd              0      0.00%     80.00% # Class of committed instruction
system.cpu.commit.op_class_0::FloatCmp              0      0.00%     80.00% # Class of committed instruction
system.cpu.commit.op_class_0::FloatCvt              0      0.00%     80.00% # Class of committed instruction
system.cpu.commit.op_class_0::FloatMult             0      0.00%     80.00% # Class of committed instruction
system.cpu.commit.op_class_0::FloatDiv              0      0.00%     80.00% # Class of committed instruction
system.cpu.commit.op_class_0::FloatSqrt             0      0.00%     80.00% # Class of committed instruction
system.cpu.commit.op_class_0::SimdAdd               0      0.00%     80.00% # Class of committed instruction
system.cpu.commit.op_class_0::SimdAddAcc            0      0.00%     80.00% # Class of committed instruction
system.cpu.commit.op_class_0::SimdAlu               0      0.00%     80.00% # Class of committed instruction
system.cpu.commit.op_class_0::SimdCmp               0      0.00%     80.00% # Class of committed instruction
system.cpu.commit.op_class_0::SimdCvt               0      0.00%     80.00% # Class of committed instruction
system.cpu.commit.op_class_0::SimdMisc              0      0.00%     80.00% # Class of committed instruction
system.cpu.commit.op_class_0::SimdMult              0      0.00%     80.00% # Class of committed instruction
system.cpu.commit.op_class_0::SimdMultAcc            0      0.00%     80.00% # Class of committed instruction
system.cpu.commit.op_class_0::SimdShift             0      0.00%     80.00% # Class of committed instruction
system.cpu.commit.op_class_0::SimdShiftAcc            0      0.00%     80.00% # Class of committed instruction
system.cpu.commit.op_class_0::SimdSqrt              0      0.00%     80.00% # Class of committed instruction
system.cpu.commit.op_class_0::SimdFloatAdd            0      0.00%     80.00% # Class of committed instruction
system.cpu.commit.op_class_0::SimdFloatAlu            0      0.00%     80.00% # Class of committed instruction
system.cpu.commit.op_class_0::SimdFloatCmp            0      0.00%     80.00% # Class of committed instruction
system.cpu.commit.op_class_0::SimdFloatCvt            0      0.00%     80.00% # Class of committed instruction
system.cpu.commit.op_class_0::SimdFloatDiv            0      0.00%     80.00% # Class of committed instruction
system.cpu.commit.op_class_0::SimdFloatMisc            0      0.00%     80.00% # Class of committed instruction
system.cpu.commit.op_class_0::SimdFloatMult            0      0.00%     80.00% # Class of committed instruction
system.cpu.commit.op_class_0::SimdFloatMultAcc            0      0.00%     80.00% # Class of committed instruction
system.cpu.commit.op_class_0::SimdFloatSqrt            0      0.00%     80.00% # Class of committed instruction
system.cpu.commit.op_class_0::MemRead               2     20.00%    100.00% # Class of committed instruction
system.cpu.commit.op_class_0::MemWrite              0      0.00%    100.00% # Class of committed instruction
system.cpu.commit.op_class_0::IprAccess             0      0.00%    100.00% # Class of committed instruction
system.cpu.commit.op_class_0::InstPrefetch            0      0.00%    100.00% # Class of committed instruction
system.cpu.commit.op_class_0::total                10                       # Class of committed instruction
system.cpu.commit.bw_lim_events                     0                       # number cycles where commit BW limit reached
system.cpu.commit.bw_limited                        0                       # number of insts not committed due to BW limits
system.cpu.rob.rob_reads                           30                       # The number of ROB reads
system.cpu.rob.rob_writes                          21                       # The number of ROB writes
system.cpu.committedInsts                          10                       # Number of Instructions Simulated
system.cpu.committedOps                            10                       # Number of Ops (including micro ops) Simulated
system.cpu.cpi                               2.000000                       # CPI: Cycles Per Instruction
system.cpu.cpi_total                         2.000000                       # CPI: Total CPI of All Threads
system.cpu.ipc                               0.500000                       # IPC: Instructions Per Cycle
system.cpu.ipc_total                         0.500000                       # IPC: Total IPC of All Threads
system.cpu.int_regfile_reads                        7                       # number of integer regfile reads
system.cpu.int_regfile_writes                       8                       # number of integer regfile writes
system.cpu.cc_regfile_reads                        39                       # number of cc regfile reads
system.cpu.cc_regfile_writes                        3                       # number of cc regfile writes
system.cpu.misc_regfile_reads                       3                       # number of misc regfile reads
system.cpu.icache.tags.replacements                 0                       # number of replacements
system.cpu.icache.tags.tagsinuse                  253                       # Cycle average of tags in use
system.cpu.icache.tags.total_refs                1611                       # Total number of references to valid blocks.
system.cpu.icache.tags.sampled_refs               253                       # Sample count of references to valid blocks.
system.cpu.icache.tags.avg_refs              6.367589                       # Average number of references to valid blocks.
system.cpu.icache.tags.warmup_cycle                 0                       # Cycle when the warmup percentage was hit.
system.cpu.icache.tags.occ_blocks::cpu.inst          253                       # Average occupied blocks per requestor
system.cpu.icache.tags.occ_percent::cpu.inst     0.494141                       # Average percentage of cache occupancy
system.cpu.icache.tags.occ_percent::total     0.494141                       # Average percentage of cache occupancy
system.cpu.icache.tags.occ_task_id_blocks::1024          253                       # Occupied blocks per task id
system.cpu.icache.tags.age_task_id_blocks_1024::0          208                       # Occupied blocks per task id
system.cpu.icache.tags.age_task_id_blocks_1024::1           45                       # Occupied blocks per task id
system.cpu.icache.tags.occ_task_id_percent::1024     0.494141                       # Percentage of cache occupancy per task id
system.cpu.icache.tags.tag_accesses                16                       # Number of tag accesses
system.cpu.icache.tags.data_accesses               16                       # Number of data accesses
system.cpu.icache.ReadReq_hits::cpu.inst            8                       # number of ReadReq hits
system.cpu.icache.ReadReq_hits::total               8                       # number of ReadReq hits
system.cpu.icache.demand_hits::cpu.inst             8                       # number of demand (read+write) hits
system.cpu.icache.demand_hits::total                8                       # number of demand (read+write) hits
system.cpu.icache.overall_hits::cpu.inst            8                       # number of overall hits
system.cpu.icache.overall_hits::total               8                       # number of overall hits
system.cpu.icache.ReadReq_accesses::cpu.inst            8                       # number of ReadReq accesses(hits+misses)
system.cpu.icache.ReadReq_accesses::total            8                       # number of ReadReq accesses(hits+misses)
system.cpu.icache.demand_accesses::cpu.inst            8                       # number of demand (read+write) accesses
system.cpu.icache.demand_accesses::total            8                       # number of demand (read+write) accesses
system.cpu.icache.overall_accesses::cpu.inst            8                       # number of overall (read+write) accesses
system.cpu.icache.overall_accesses::total            8                       # number of overall (read+write) accesses
system.cpu.icache.blocked_cycles::no_mshrs            0                       # number of cycles access was blocked
system.cpu.icache.blocked_cycles::no_targets            0                       # number of cycles access was blocked
system.cpu.icache.blocked::no_mshrs                 0                       # number of cycles access was blocked
system.cpu.icache.blocked::no_targets               0                       # number of cycles access was blocked
system.cpu.icache.avg_blocked_cycles::no_mshrs          nan                       # average number of cycles each access was blocked
system.cpu.icache.avg_blocked_cycles::no_targets          nan                       # average number of cycles each access was blocked
system.cpu.icache.fast_writes                       0                       # number of fast writes performed
system.cpu.icache.cache_copies                      0                       # number of cache copies performed
system.cpu.icache.no_allocate_misses                0                       # Number of misses that were no-allocate
system.cpu.dcache.tags.replacements                 0                       # number of replacements
system.cpu.dcache.tags.tagsinuse                  148                       # Cycle average of tags in use
system.cpu.dcache.tags.total_refs                2314                       # Total number of references to valid blocks.
system.cpu.dcache.tags.sampled_refs               148                       # Sample count of references to valid blocks.
system.cpu.dcache.tags.avg_refs             15.635135                       # Average number of references to valid blocks.
system.cpu.dcache.tags.warmup_cycle                 0                       # Cycle when the warmup percentage was hit.
system.cpu.dcache.tags.occ_blocks::cpu.data          148                       # Average occupied blocks per requestor
system.cpu.dcache.tags.occ_percent::cpu.data     0.144531                       # Average percentage of cache occupancy
system.cpu.dcache.tags.occ_percent::total     0.144531                       # Average percentage of cache occupancy
system.cpu.dcache.tags.occ_task_id_blocks::1024          148                       # Occupied blocks per task id
system.cpu.dcache.tags.age_task_id_blocks_1024::0           95                       # Occupied blocks per task id
system.cpu.dcache.tags.age_task_id_blocks_1024::1           53                       # Occupied blocks per task id
system.cpu.dcache.tags.occ_task_id_percent::1024     0.144531                       # Percentage of cache occupancy per task id
system.cpu.dcache.tags.tag_accesses                 4                       # Number of tag accesses
system.cpu.dcache.tags.data_accesses                4                       # Number of data accesses
system.cpu.dcache.ReadReq_hits::cpu.data            2                       # number of ReadReq hits
system.cpu.dcache.ReadReq_hits::total               2                       # number of ReadReq hits
system.cpu.dcache.demand_hits::cpu.data             2                       # number of demand (read+write) hits
system.cpu.dcache.demand_hits::total                2                       # number of demand (read+write) hits
system.cpu.dcache.overall_hits::cpu.data            2                       # number of overall hits
system.cpu.dcache.overall_hits::total               2                       # number of overall hits
system.cpu.dcache.ReadReq_accesses::cpu.data            2                       # number of ReadReq accesses(hits+misses)
system.cpu.dcache.ReadReq_accesses::total            2                       # number of ReadReq accesses(hits+misses)
system.cpu.dcache.demand_accesses::cpu.data            2                       # number of demand (read+write) accesses
system.cpu.dcache.demand_accesses::total            2                       # number of demand (read+write) accesses
system.cpu.dcache.overall_accesses::cpu.data            2                       # number of overall (read+write) accesses
system.cpu.dcache.overall_accesses::total            2                       # number of overall (read+write) accesses
system.cpu.dcache.blocked_cycles::no_mshrs            0                       # number of cycles access was blocked
system.cpu.dcache.blocked_cycles::no_targets            0                       # number of cycles access was blocked
system.cpu.dcache.blocked::no_mshrs                 0                       # number of cycles access was blocked
system.cpu.dcache.blocked::no_targets               0                       # number of cycles access was blocked
system.cpu.dcache.avg_blocked_cycles::no_mshrs          nan                       # average number of cycles each access was blocked
system.cpu.dcache.avg_blocked_cycles::no_targets          nan                       # average number of cycles each access was blocked
system.cpu.dcache.fast_writes                       0                       # number of fast writes performed
system.cpu.dcache.cache_copies                      0                       # number of cache copies performed
system.cpu.dcache.no_allocate_misses                0                       # Number of misses that were no-allocate

---------- End Simulation Statistics   ----------
