
---------- Begin Simulation Statistics ----------
sim_seconds                                  0.000015                       # Number of seconds simulated
sim_ticks                                    15270500                       # Number of ticks simulated
final_tick                                   15270500                       # Number of ticks from beginning of simulation (restored from checkpoints and never reset)
sim_freq                                 1000000000000                       # Frequency of simulated ticks
host_inst_rate                                  62732                       # Simulator instruction rate (inst/s)
host_op_rate                                    72761                       # Simulator op (including micro ops) rate (op/s)
host_tick_rate                              200610878                       # Simulator tick rate (ticks/s)
host_mem_usage                                 690252                       # Number of bytes of host memory used
host_seconds                                     0.08                       # Real time elapsed on the host
sim_insts                                        4774                       # Number of instructions simulated
sim_ops                                          5538                       # Number of ops (including micro ops) simulated
system.voltage_domain.voltage                       1                       # Voltage in Volts
system.clk_domain.clock                          1000                       # Clock period in ticks
system.mem_ctrls.bytes_read::cpu.inst           17600                       # Number of bytes read from this memory
system.mem_ctrls.bytes_read::cpu.data            9088                       # Number of bytes read from this memory
system.mem_ctrls.bytes_read::total              26688                       # Number of bytes read from this memory
system.mem_ctrls.bytes_inst_read::cpu.inst        17600                       # Number of instructions bytes read from this memory
system.mem_ctrls.bytes_inst_read::total         17600                       # Number of instructions bytes read from this memory
system.mem_ctrls.num_reads::cpu.inst              275                       # Number of read requests responded to by this memory
system.mem_ctrls.num_reads::cpu.data              142                       # Number of read requests responded to by this memory
system.mem_ctrls.num_reads::total                 417                       # Number of read requests responded to by this memory
system.mem_ctrls.bw_read::cpu.inst         1152549032                       # Total read bandwidth from this memory (bytes/s)
system.mem_ctrls.bw_read::cpu.data          595134409                       # Total read bandwidth from this memory (bytes/s)
system.mem_ctrls.bw_read::total            1747683442                       # Total read bandwidth from this memory (bytes/s)
system.mem_ctrls.bw_inst_read::cpu.inst    1152549032                       # Instruction read bandwidth from this memory (bytes/s)
system.mem_ctrls.bw_inst_read::total       1152549032                       # Instruction read bandwidth from this memory (bytes/s)
system.mem_ctrls.bw_total::cpu.inst        1152549032                       # Total bandwidth to/from this memory (bytes/s)
system.mem_ctrls.bw_total::cpu.data         595134409                       # Total bandwidth to/from this memory (bytes/s)
system.mem_ctrls.bw_total::total           1747683442                       # Total bandwidth to/from this memory (bytes/s)
system.mem_ctrls.readReqs                         419                       # Number of read requests accepted
system.mem_ctrls.writeReqs                          0                       # Number of write requests accepted
system.mem_ctrls.readBursts                       419                       # Number of DRAM read bursts, including those serviced by the write queue
system.mem_ctrls.writeBursts                        0                       # Number of DRAM write bursts, including those merged in the write queue
system.mem_ctrls.bytesReadDRAM                  26816                       # Total number of bytes read from DRAM
system.mem_ctrls.bytesReadWrQ                       0                       # Total number of bytes read from write queue
system.mem_ctrls.bytesWritten                       0                       # Total number of bytes written to DRAM
system.mem_ctrls.bytesReadSys                   26816                       # Total read bytes from the system interface side
system.mem_ctrls.bytesWrittenSys                    0                       # Total written bytes from the system interface side
system.mem_ctrls.servicedByWrQ                      0                       # Number of DRAM read bursts serviced by the write queue
system.mem_ctrls.mergedWrBursts                     0                       # Number of DRAM write bursts merged with an existing one
system.mem_ctrls.neitherReadNorWriteReqs            0                       # Number of requests that are neither read nor write
system.mem_ctrls.perBankRdBursts::0               101                       # Per bank write bursts
system.mem_ctrls.perBankRdBursts::1                35                       # Per bank write bursts
system.mem_ctrls.perBankRdBursts::2                17                       # Per bank write bursts
system.mem_ctrls.perBankRdBursts::3                42                       # Per bank write bursts
system.mem_ctrls.perBankRdBursts::4                19                       # Per bank write bursts
system.mem_ctrls.perBankRdBursts::5                39                       # Per bank write bursts
system.mem_ctrls.perBankRdBursts::6                47                       # Per bank write bursts
system.mem_ctrls.perBankRdBursts::7                10                       # Per bank write bursts
system.mem_ctrls.perBankRdBursts::8                 6                       # Per bank write bursts
system.mem_ctrls.perBankRdBursts::9                 8                       # Per bank write bursts
system.mem_ctrls.perBankRdBursts::10               27                       # Per bank write bursts
system.mem_ctrls.perBankRdBursts::11               43                       # Per bank write bursts
system.mem_ctrls.perBankRdBursts::12                8                       # Per bank write bursts
system.mem_ctrls.perBankRdBursts::13               10                       # Per bank write bursts
system.mem_ctrls.perBankRdBursts::14                0                       # Per bank write bursts
system.mem_ctrls.perBankRdBursts::15                7                       # Per bank write bursts
system.mem_ctrls.perBankWrBursts::0                 0                       # Per bank write bursts
system.mem_ctrls.perBankWrBursts::1                 0                       # Per bank write bursts
system.mem_ctrls.perBankWrBursts::2                 0                       # Per bank write bursts
system.mem_ctrls.perBankWrBursts::3                 0                       # Per bank write bursts
system.mem_ctrls.perBankWrBursts::4                 0                       # Per bank write bursts
system.mem_ctrls.perBankWrBursts::5                 0                       # Per bank write bursts
system.mem_ctrls.perBankWrBursts::6                 0                       # Per bank write bursts
system.mem_ctrls.perBankWrBursts::7                 0                       # Per bank write bursts
system.mem_ctrls.perBankWrBursts::8                 0                       # Per bank write bursts
system.mem_ctrls.perBankWrBursts::9                 0                       # Per bank write bursts
system.mem_ctrls.perBankWrBursts::10                0                       # Per bank write bursts
system.mem_ctrls.perBankWrBursts::11                0                       # Per bank write bursts
system.mem_ctrls.perBankWrBursts::12                0                       # Per bank write bursts
system.mem_ctrls.perBankWrBursts::13                0                       # Per bank write bursts
system.mem_ctrls.perBankWrBursts::14                0                       # Per bank write bursts
system.mem_ctrls.perBankWrBursts::15                0                       # Per bank write bursts
system.mem_ctrls.numRdRetry                         0                       # Number of times read queue was full causing retry
system.mem_ctrls.numWrRetry                         0                       # Number of times write queue was full causing retry
system.mem_ctrls.totGap                      15266000                       # Total gap between requests
system.mem_ctrls.readPktSize::0                     0                       # Read request sizes (log2)
system.mem_ctrls.readPktSize::1                     0                       # Read request sizes (log2)
system.mem_ctrls.readPktSize::2                     0                       # Read request sizes (log2)
system.mem_ctrls.readPktSize::3                     0                       # Read request sizes (log2)
system.mem_ctrls.readPktSize::4                     0                       # Read request sizes (log2)
system.mem_ctrls.readPktSize::5                     0                       # Read request sizes (log2)
system.mem_ctrls.readPktSize::6                   419                       # Read request sizes (log2)
system.mem_ctrls.writePktSize::0                    0                       # Write request sizes (log2)
system.mem_ctrls.writePktSize::1                    0                       # Write request sizes (log2)
system.mem_ctrls.writePktSize::2                    0                       # Write request sizes (log2)
system.mem_ctrls.writePktSize::3                    0                       # Write request sizes (log2)
system.mem_ctrls.writePktSize::4                    0                       # Write request sizes (log2)
system.mem_ctrls.writePktSize::5                    0                       # Write request sizes (log2)
system.mem_ctrls.writePktSize::6                    0                       # Write request sizes (log2)
system.mem_ctrls.rdQLenPdf::0                     252                       # What read queue length does an incoming req see
system.mem_ctrls.rdQLenPdf::1                     114                       # What read queue length does an incoming req see
system.mem_ctrls.rdQLenPdf::2                      35                       # What read queue length does an incoming req see
system.mem_ctrls.rdQLenPdf::3                      14                       # What read queue length does an incoming req see
system.mem_ctrls.rdQLenPdf::4                       4                       # What read queue length does an incoming req see
system.mem_ctrls.rdQLenPdf::5                       0                       # What read queue length does an incoming req see
system.mem_ctrls.rdQLenPdf::6                       0                       # What read queue length does an incoming req see
system.mem_ctrls.rdQLenPdf::7                       0                       # What read queue length does an incoming req see
system.mem_ctrls.rdQLenPdf::8                       0                       # What read queue length does an incoming req see
system.mem_ctrls.rdQLenPdf::9                       0                       # What read queue length does an incoming req see
system.mem_ctrls.rdQLenPdf::10                      0                       # What read queue length does an incoming req see
system.mem_ctrls.rdQLenPdf::11                      0                       # What read queue length does an incoming req see
system.mem_ctrls.rdQLenPdf::12                      0                       # What read queue length does an incoming req see
system.mem_ctrls.rdQLenPdf::13                      0                       # What read queue length does an incoming req see
system.mem_ctrls.rdQLenPdf::14                      0                       # What read queue length does an incoming req see
system.mem_ctrls.rdQLenPdf::15                      0                       # What read queue length does an incoming req see
system.mem_ctrls.rdQLenPdf::16                      0                       # What read queue length does an incoming req see
system.mem_ctrls.rdQLenPdf::17                      0                       # What read queue length does an incoming req see
system.mem_ctrls.rdQLenPdf::18                      0                       # What read queue length does an incoming req see
system.mem_ctrls.rdQLenPdf::19                      0                       # What read queue length does an incoming req see
system.mem_ctrls.rdQLenPdf::20                      0                       # What read queue length does an incoming req see
system.mem_ctrls.rdQLenPdf::21                      0                       # What read queue length does an incoming req see
system.mem_ctrls.rdQLenPdf::22                      0                       # What read queue length does an incoming req see
system.mem_ctrls.rdQLenPdf::23                      0                       # What read queue length does an incoming req see
system.mem_ctrls.rdQLenPdf::24                      0                       # What read queue length does an incoming req see
system.mem_ctrls.rdQLenPdf::25                      0                       # What read queue length does an incoming req see
system.mem_ctrls.rdQLenPdf::26                      0                       # What read queue length does an incoming req see
system.mem_ctrls.rdQLenPdf::27                      0                       # What read queue length does an incoming req see
system.mem_ctrls.rdQLenPdf::28                      0                       # What read queue length does an incoming req see
system.mem_ctrls.rdQLenPdf::29                      0                       # What read queue length does an incoming req see
system.mem_ctrls.rdQLenPdf::30                      0                       # What read queue length does an incoming req see
system.mem_ctrls.rdQLenPdf::31                      0                       # What read queue length does an incoming req see
system.mem_ctrls.wrQLenPdf::0                       0                       # What write queue length does an incoming req see
system.mem_ctrls.wrQLenPdf::1                       0                       # What write queue length does an incoming req see
system.mem_ctrls.wrQLenPdf::2                       0                       # What write queue length does an incoming req see
system.mem_ctrls.wrQLenPdf::3                       0                       # What write queue length does an incoming req see
system.mem_ctrls.wrQLenPdf::4                       0                       # What write queue length does an incoming req see
system.mem_ctrls.wrQLenPdf::5                       0                       # What write queue length does an incoming req see
system.mem_ctrls.wrQLenPdf::6                       0                       # What write queue length does an incoming req see
system.mem_ctrls.wrQLenPdf::7                       0                       # What write queue length does an incoming req see
system.mem_ctrls.wrQLenPdf::8                       0                       # What write queue length does an incoming req see
system.mem_ctrls.wrQLenPdf::9                       0                       # What write queue length does an incoming req see
system.mem_ctrls.wrQLenPdf::10                      0                       # What write queue length does an incoming req see
system.mem_ctrls.wrQLenPdf::11                      0                       # What write queue length does an incoming req see
system.mem_ctrls.wrQLenPdf::12                      0                       # What write queue length does an incoming req see
system.mem_ctrls.wrQLenPdf::13                      0                       # What write queue length does an incoming req see
system.mem_ctrls.wrQLenPdf::14                      0                       # What write queue length does an incoming req see
system.mem_ctrls.wrQLenPdf::15                      0                       # What write queue length does an incoming req see
system.mem_ctrls.wrQLenPdf::16                      0                       # What write queue length does an incoming req see
system.mem_ctrls.wrQLenPdf::17                      0                       # What write queue length does an incoming req see
system.mem_ctrls.wrQLenPdf::18                      0                       # What write queue length does an incoming req see
system.mem_ctrls.wrQLenPdf::19                      0                       # What write queue length does an incoming req see
system.mem_ctrls.wrQLenPdf::20                      0                       # What write queue length does an incoming req see
system.mem_ctrls.wrQLenPdf::21                      0                       # What write queue length does an incoming req see
system.mem_ctrls.wrQLenPdf::22                      0                       # What write queue length does an incoming req see
system.mem_ctrls.wrQLenPdf::23                      0                       # What write queue length does an incoming req see
system.mem_ctrls.wrQLenPdf::24                      0                       # What write queue length does an incoming req see
system.mem_ctrls.wrQLenPdf::25                      0                       # What write queue length does an incoming req see
system.mem_ctrls.wrQLenPdf::26                      0                       # What write queue length does an incoming req see
system.mem_ctrls.wrQLenPdf::27                      0                       # What write queue length does an incoming req see
system.mem_ctrls.wrQLenPdf::28                      0                       # What write queue length does an incoming req see
system.mem_ctrls.wrQLenPdf::29                      0                       # What write queue length does an incoming req see
system.mem_ctrls.wrQLenPdf::30                      0                       # What write queue length does an incoming req see
system.mem_ctrls.wrQLenPdf::31                      0                       # What write queue length does an incoming req see
system.mem_ctrls.wrQLenPdf::32                      0                       # What write queue length does an incoming req see
system.mem_ctrls.wrQLenPdf::33                      0                       # What write queue length does an incoming req see
system.mem_ctrls.wrQLenPdf::34                      0                       # What write queue length does an incoming req see
system.mem_ctrls.wrQLenPdf::35                      0                       # What write queue length does an incoming req see
system.mem_ctrls.wrQLenPdf::36                      0                       # What write queue length does an incoming req see
system.mem_ctrls.wrQLenPdf::37                      0                       # What write queue length does an incoming req see
system.mem_ctrls.wrQLenPdf::38                      0                       # What write queue length does an incoming req see
system.mem_ctrls.wrQLenPdf::39                      0                       # What write queue length does an incoming req see
system.mem_ctrls.wrQLenPdf::40                      0                       # What write queue length does an incoming req see
system.mem_ctrls.wrQLenPdf::41                      0                       # What write queue length does an incoming req see
system.mem_ctrls.wrQLenPdf::42                      0                       # What write queue length does an incoming req see
system.mem_ctrls.wrQLenPdf::43                      0                       # What write queue length does an incoming req see
system.mem_ctrls.wrQLenPdf::44                      0                       # What write queue length does an incoming req see
system.mem_ctrls.wrQLenPdf::45                      0                       # What write queue length does an incoming req see
system.mem_ctrls.wrQLenPdf::46                      0                       # What write queue length does an incoming req see
system.mem_ctrls.wrQLenPdf::47                      0                       # What write queue length does an incoming req see
system.mem_ctrls.wrQLenPdf::48                      0                       # What write queue length does an incoming req see
system.mem_ctrls.wrQLenPdf::49                      0                       # What write queue length does an incoming req see
system.mem_ctrls.wrQLenPdf::50                      0                       # What write queue length does an incoming req see
system.mem_ctrls.wrQLenPdf::51                      0                       # What write queue length does an incoming req see
system.mem_ctrls.wrQLenPdf::52                      0                       # What write queue length does an incoming req see
system.mem_ctrls.wrQLenPdf::53                      0                       # What write queue length does an incoming req see
system.mem_ctrls.wrQLenPdf::54                      0                       # What write queue length does an incoming req see
system.mem_ctrls.wrQLenPdf::55                      0                       # What write queue length does an incoming req see
system.mem_ctrls.wrQLenPdf::56                      0                       # What write queue length does an incoming req see
system.mem_ctrls.wrQLenPdf::57                      0                       # What write queue length does an incoming req see
system.mem_ctrls.wrQLenPdf::58                      0                       # What write queue length does an incoming req see
system.mem_ctrls.wrQLenPdf::59                      0                       # What write queue length does an incoming req see
system.mem_ctrls.wrQLenPdf::60                      0                       # What write queue length does an incoming req see
system.mem_ctrls.wrQLenPdf::61                      0                       # What write queue length does an incoming req see
system.mem_ctrls.wrQLenPdf::62                      0                       # What write queue length does an incoming req see
system.mem_ctrls.wrQLenPdf::63                      0                       # What write queue length does an incoming req see
system.mem_ctrls.bytesPerActivate::samples           48                       # Bytes accessed per row activation
system.mem_ctrls.bytesPerActivate::mean           476                       # Bytes accessed per row activation
system.mem_ctrls.bytesPerActivate::gmean   328.137087                       # Bytes accessed per row activation
system.mem_ctrls.bytesPerActivate::stdev   380.329980                       # Bytes accessed per row activation
system.mem_ctrls.bytesPerActivate::0-127            4      8.33%      8.33% # Bytes accessed per row activation
system.mem_ctrls.bytesPerActivate::128-255           16     33.33%     41.67% # Bytes accessed per row activation
system.mem_ctrls.bytesPerActivate::256-383            8     16.67%     58.33% # Bytes accessed per row activation
system.mem_ctrls.bytesPerActivate::384-511            2      4.17%     62.50% # Bytes accessed per row activation
system.mem_ctrls.bytesPerActivate::512-639            2      4.17%     66.67% # Bytes accessed per row activation
system.mem_ctrls.bytesPerActivate::768-895            2      4.17%     70.83% # Bytes accessed per row activation
system.mem_ctrls.bytesPerActivate::896-1023            1      2.08%     72.92% # Bytes accessed per row activation
system.mem_ctrls.bytesPerActivate::1024-1151           13     27.08%    100.00% # Bytes accessed per row activation
system.mem_ctrls.bytesPerActivate::total           48                       # Bytes accessed per row activation
system.mem_ctrls.totQLat                      2711500                       # Total ticks spent queuing
system.mem_ctrls.totMemAccLat                10567750                       # Total ticks spent from burst creation until serviced by the DRAM
system.mem_ctrls.totBusLat                    2095000                       # Total ticks spent in databus transfers
system.mem_ctrls.avgQLat                      6471.36                       # Average queueing delay per DRAM burst
system.mem_ctrls.avgBusLat                    5000.00                       # Average bus latency per DRAM burst
system.mem_ctrls.avgMemAccLat                25221.36                       # Average memory access latency per DRAM burst
system.mem_ctrls.avgRdBW                      1756.07                       # Average DRAM read bandwidth in MiByte/s
system.mem_ctrls.avgWrBW                         0.00                       # Average achieved write bandwidth in MiByte/s
system.mem_ctrls.avgRdBWSys                   1756.07                       # Average system read bandwidth in MiByte/s
system.mem_ctrls.avgWrBWSys                      0.00                       # Average system write bandwidth in MiByte/s
system.mem_ctrls.peakBW                      12800.00                       # Theoretical peak bandwidth in MiByte/s
system.mem_ctrls.busUtil                        13.72                       # Data bus utilization in percentage
system.mem_ctrls.busUtilRead                    13.72                       # Data bus utilization in percentage for reads
system.mem_ctrls.busUtilWrite                    0.00                       # Data bus utilization in percentage for writes
system.mem_ctrls.avgRdQLen                       1.61                       # Average read queue length when enqueuing
system.mem_ctrls.avgWrQLen                       0.00                       # Average write queue length when enqueuing
system.mem_ctrls.readRowHits                      356                       # Number of row buffer hits during reads
system.mem_ctrls.writeRowHits                       0                       # Number of row buffer hits during writes
system.mem_ctrls.readRowHitRate                 84.96                       # Row buffer hit rate for reads
system.mem_ctrls.writeRowHitRate                  nan                       # Row buffer hit rate for writes
system.mem_ctrls.avgGap                      36434.37                       # Average gap between requests
system.mem_ctrls.pageHitRate                    84.96                       # Row buffer hit rate, read and write combined
system.mem_ctrls.memoryStateTime::IDLE            500                       # Time in different power states
system.mem_ctrls.memoryStateTime::REF          260000                       # Time in different power states
system.mem_ctrls.memoryStateTime::PRE_PDN            0                       # Time in different power states
system.mem_ctrls.memoryStateTime::ACT         7799500                       # Time in different power states
system.mem_ctrls.memoryStateTime::ACT_PDN            0                       # Time in different power states
system.membus.trans_dist::ReadReq                 377                       # Transaction distribution
system.membus.trans_dist::ReadResp                375                       # Transaction distribution
system.membus.trans_dist::ReadExReq                42                       # Transaction distribution
system.membus.trans_dist::ReadExResp               42                       # Transaction distribution
system.membus.pkt_count_system.cpu.icache.mem_side::system.mem_ctrls.port          552                       # Packet count per connected master and slave (bytes)
system.membus.pkt_count_system.cpu.dcache.mem_side::system.mem_ctrls.port          284                       # Packet count per connected master and slave (bytes)
system.membus.pkt_count::total                    836                       # Packet count per connected master and slave (bytes)
system.membus.pkt_size_system.cpu.icache.mem_side::system.mem_ctrls.port        17600                       # Cumulative packet size per connected master and slave (bytes)
system.membus.pkt_size_system.cpu.dcache.mem_side::system.mem_ctrls.port         9088                       # Cumulative packet size per connected master and slave (bytes)
system.membus.pkt_size::total                   26688                       # Cumulative packet size per connected master and slave (bytes)
system.membus.snoops                                0                       # Total snoops (count)
system.membus.snoop_fanout::samples               419                       # Request fanout histogram
system.membus.snoop_fanout::mean                    5                       # Request fanout histogram
system.membus.snoop_fanout::stdev                   0                       # Request fanout histogram
system.membus.snoop_fanout::underflows              0      0.00%      0.00% # Request fanout histogram
system.membus.snoop_fanout::0                       0      0.00%      0.00% # Request fanout histogram
system.membus.snoop_fanout::1                       0      0.00%      0.00% # Request fanout histogram
system.membus.snoop_fanout::2                       0      0.00%      0.00% # Request fanout histogram
system.membus.snoop_fanout::3                       0      0.00%      0.00% # Request fanout histogram
system.membus.snoop_fanout::4                       0      0.00%      0.00% # Request fanout histogram
system.membus.snoop_fanout::5                     419    100.00%    100.00% # Request fanout histogram
system.membus.snoop_fanout::6                       0      0.00%    100.00% # Request fanout histogram
system.membus.snoop_fanout::overflows               0      0.00%    100.00% # Request fanout histogram
system.membus.snoop_fanout::min_value               5                       # Request fanout histogram
system.membus.snoop_fanout::max_value               5                       # Request fanout histogram
system.membus.snoop_fanout::total                 419                       # Request fanout histogram
system.membus.reqLayer0.occupancy              508000                       # Layer occupancy (ticks)
system.membus.reqLayer0.utilization               3.3                       # Layer utilization (%)
system.membus.respLayer1.occupancy            2583249                       # Layer occupancy (ticks)
system.membus.respLayer1.utilization             16.9                       # Layer utilization (%)
system.membus.respLayer2.occupancy            1333000                       # Layer occupancy (ticks)
system.membus.respLayer2.utilization              8.7                       # Layer utilization (%)
system.cpu_voltage_domain.voltage                   1                       # Voltage in Volts
system.cpu_clk_domain.clock                       500                       # Clock period in ticks
system.cpu.branchPred.lookups                    2354                       # Number of BP lookups
system.cpu.branchPred.condPredicted              1427                       # Number of conditional branches predicted
system.cpu.branchPred.condIncorrect               520                       # Number of conditional branches incorrect
system.cpu.branchPred.BTBLookups                  806                       # Number of BTB lookups
system.cpu.branchPred.BTBHits                     460                       # Number of BTB hits
system.cpu.branchPred.BTBCorrect                    0                       # Number of correct BTB predictions (this stat may not work properly.
system.cpu.branchPred.BTBHitPct             57.071960                       # BTB Hit Percentage
system.cpu.branchPred.usedRAS                     326                       # Number of times the RAS was used to get a target.
system.cpu.branchPred.RASInCorrect                 51                       # Number of incorrect RAS predictions.
system.cpu.dstage2_mmu.stage2_tlb.inst_hits            0                       # ITB inst hits
system.cpu.dstage2_mmu.stage2_tlb.inst_misses            0                       # ITB inst misses
system.cpu.dstage2_mmu.stage2_tlb.read_hits            0                       # DTB read hits
system.cpu.dstage2_mmu.stage2_tlb.read_misses            0                       # DTB read misses
system.cpu.dstage2_mmu.stage2_tlb.write_hits            0                       # DTB write hits
system.cpu.dstage2_mmu.stage2_tlb.write_misses            0                       # DTB write misses
system.cpu.dstage2_mmu.stage2_tlb.flush_tlb            0                       # Number of times complete TLB was flushed
system.cpu.dstage2_mmu.stage2_tlb.flush_tlb_mva            0                       # Number of times TLB was flushed by MVA
system.cpu.dstage2_mmu.stage2_tlb.flush_tlb_mva_asid            0                       # Number of times TLB was flushed by MVA & ASID
system.cpu.dstage2_mmu.stage2_tlb.flush_tlb_asid            0                       # Number of times TLB was flushed by ASID
system.cpu.dstage2_mmu.stage2_tlb.flush_entries            0                       # Number of entries that have been flushed from TLB
system.cpu.dstage2_mmu.stage2_tlb.align_faults            0                       # Number of TLB faults due to alignment restrictions
system.cpu.dstage2_mmu.stage2_tlb.prefetch_faults            0                       # Number of TLB faults due to prefetch
system.cpu.dstage2_mmu.stage2_tlb.domain_faults            0                       # Number of TLB faults due to domain restrictions
system.cpu.dstage2_mmu.stage2_tlb.perms_faults            0                       # Number of TLB faults due to permissions restrictions
system.cpu.dstage2_mmu.stage2_tlb.read_accesses            0                       # DTB read accesses
system.cpu.dstage2_mmu.stage2_tlb.write_accesses            0                       # DTB write accesses
system.cpu.dstage2_mmu.stage2_tlb.inst_accesses            0                       # ITB inst accesses
system.cpu.dstage2_mmu.stage2_tlb.hits              0                       # DTB hits
system.cpu.dstage2_mmu.stage2_tlb.misses            0                       # DTB misses
system.cpu.dstage2_mmu.stage2_tlb.accesses            0                       # DTB accesses
system.cpu.dtb.inst_hits                            0                       # ITB inst hits
system.cpu.dtb.inst_misses                          0                       # ITB inst misses
system.cpu.dtb.read_hits                            0                       # DTB read hits
system.cpu.dtb.read_misses                          0                       # DTB read misses
system.cpu.dtb.write_hits                           0                       # DTB write hits
system.cpu.dtb.write_misses                         0                       # DTB write misses
system.cpu.dtb.flush_tlb                            0                       # Number of times complete TLB was flushed
system.cpu.dtb.flush_tlb_mva                        0                       # Number of times TLB was flushed by MVA
system.cpu.dtb.flush_tlb_mva_asid                   0                       # Number of times TLB was flushed by MVA & ASID
system.cpu.dtb.flush_tlb_asid                       0                       # Number of times TLB was flushed by ASID
system.cpu.dtb.flush_entries                        0                       # Number of entries that have been flushed from TLB
system.cpu.dtb.align_faults                         0                       # Number of TLB faults due to alignment restrictions
system.cpu.dtb.prefetch_faults                      0                       # Number of TLB faults due to prefetch
system.cpu.dtb.domain_faults                        0                       # Number of TLB faults due to domain restrictions
system.cpu.dtb.perms_faults                         0                       # Number of TLB faults due to permissions restrictions
system.cpu.dtb.read_accesses                        0                       # DTB read accesses
system.cpu.dtb.write_accesses                       0                       # DTB write accesses
system.cpu.dtb.inst_accesses                        0                       # ITB inst accesses
system.cpu.dtb.hits                                 0                       # DTB hits
system.cpu.dtb.misses                               0                       # DTB misses
system.cpu.dtb.accesses                             0                       # DTB accesses
system.cpu.istage2_mmu.stage2_tlb.inst_hits            0                       # ITB inst hits
system.cpu.istage2_mmu.stage2_tlb.inst_misses            0                       # ITB inst misses
system.cpu.istage2_mmu.stage2_tlb.read_hits            0                       # DTB read hits
system.cpu.istage2_mmu.stage2_tlb.read_misses            0                       # DTB read misses
system.cpu.istage2_mmu.stage2_tlb.write_hits            0                       # DTB write hits
system.cpu.istage2_mmu.stage2_tlb.write_misses            0                       # DTB write misses
system.cpu.istage2_mmu.stage2_tlb.flush_tlb            0                       # Number of times complete TLB was flushed
system.cpu.istage2_mmu.stage2_tlb.flush_tlb_mva            0                       # Number of times TLB was flushed by MVA
system.cpu.istage2_mmu.stage2_tlb.flush_tlb_mva_asid            0                       # Number of times TLB was flushed by MVA & ASID
system.cpu.istage2_mmu.stage2_tlb.flush_tlb_asid            0                       # Number of times TLB was flushed by ASID
system.cpu.istage2_mmu.stage2_tlb.flush_entries            0                       # Number of entries that have been flushed from TLB
system.cpu.istage2_mmu.stage2_tlb.align_faults            0                       # Number of TLB faults due to alignment restrictions
system.cpu.istage2_mmu.stage2_tlb.prefetch_faults            0                       # Number of TLB faults due to prefetch
system.cpu.istage2_mmu.stage2_tlb.domain_faults            0                       # Number of TLB faults due to domain restrictions
system.cpu.istage2_mmu.stage2_tlb.perms_faults            0                       # Number of TLB faults due to permissions restrictions
system.cpu.istage2_mmu.stage2_tlb.read_accesses            0                       # DTB read accesses
system.cpu.istage2_mmu.stage2_tlb.write_accesses            0                       # DTB write accesses
system.cpu.istage2_mmu.stage2_tlb.inst_accesses            0                       # ITB inst accesses
system.cpu.istage2_mmu.stage2_tlb.hits              0                       # DTB hits
system.cpu.istage2_mmu.stage2_tlb.misses            0                       # DTB misses
system.cpu.istage2_mmu.stage2_tlb.accesses            0                       # DTB accesses
system.cpu.itb.inst_hits                            0                       # ITB inst hits
system.cpu.itb.inst_misses                          0                       # ITB inst misses
system.cpu.itb.read_hits                            0                       # DTB read hits
system.cpu.itb.read_misses                          0                       # DTB read misses
system.cpu.itb.write_hits                           0                       # DTB write hits
system.cpu.itb.write_misses                         0                       # DTB write misses
system.cpu.itb.flush_tlb                            0                       # Number of times complete TLB was flushed
system.cpu.itb.flush_tlb_mva                        0                       # Number of times TLB was flushed by MVA
system.cpu.itb.flush_tlb_mva_asid                   0                       # Number of times TLB was flushed by MVA & ASID
system.cpu.itb.flush_tlb_asid                       0                       # Number of times TLB was flushed by ASID
system.cpu.itb.flush_entries                        0                       # Number of entries that have been flushed from TLB
system.cpu.itb.align_faults                         0                       # Number of TLB faults due to alignment restrictions
system.cpu.itb.prefetch_faults                      0                       # Number of TLB faults due to prefetch
system.cpu.itb.domain_faults                        0                       # Number of TLB faults due to domain restrictions
system.cpu.itb.perms_faults                         0                       # Number of TLB faults due to permissions restrictions
system.cpu.itb.read_accesses                        0                       # DTB read accesses
system.cpu.itb.write_accesses                       0                       # DTB write accesses
system.cpu.itb.inst_accesses                        0                       # ITB inst accesses
system.cpu.itb.hits                                 0                       # DTB hits
system.cpu.itb.misses                               0                       # DTB misses
system.cpu.itb.accesses                             0                       # DTB accesses
system.cpu.workload.num_syscalls                   12                       # Number of system calls
system.cpu.numCycles                            30542                       # number of cpu cycles simulated
system.cpu.numWorkItemsStarted                      0                       # number of work items this cpu started
system.cpu.numWorkItemsCompleted                    0                       # number of work items this cpu completed
system.cpu.fetch.icacheStallCycles               7539                       # Number of cycles fetch is stalled on an Icache miss
system.cpu.fetch.Insts                          11264                       # Number of instructions fetch has processed
system.cpu.fetch.Branches                        2354                       # Number of branches that fetch encountered
system.cpu.fetch.predictedBranches                786                       # Number of branches that fetch has predicted taken
system.cpu.fetch.Cycles                          8088                       # Number of cycles fetch has run and was not squashing or blocked
system.cpu.fetch.SquashCycles                    1078                       # Number of cycles fetch has spent squashing
system.cpu.fetch.MiscStallCycles                  153                       # Number of cycles fetch has spent waiting on interrupts, or bad addresses, or out of MSHRs
system.cpu.fetch.PendingTrapStallCycles           279                       # Number of stall cycles due to pending traps
system.cpu.fetch.IcacheWaitRetryStallCycles          266                       # Number of stall cycles due to full MSHR
system.cpu.fetch.CacheLines                      3872                       # Number of cache lines fetched
system.cpu.fetch.IcacheSquashes                   190                       # Number of outstanding Icache misses that were squashed
system.cpu.fetch.rateDist::samples              16864                       # Number of instructions fetched each cycle (Total)
system.cpu.fetch.rateDist::mean              0.780835                       # Number of instructions fetched each cycle (Total)
system.cpu.fetch.rateDist::stdev             1.176273                       # Number of instructions fetched each cycle (Total)
system.cpu.fetch.rateDist::underflows               0      0.00%      0.00% # Number of instructions fetched each cycle (Total)
system.cpu.fetch.rateDist::0                    10681     63.34%     63.34% # Number of instructions fetched each cycle (Total)
system.cpu.fetch.rateDist::1                     2436     14.44%     77.78% # Number of instructions fetched each cycle (Total)
system.cpu.fetch.rateDist::2                      509      3.02%     80.80% # Number of instructions fetched each cycle (Total)
system.cpu.fetch.rateDist::3                     3238     19.20%    100.00% # Number of instructions fetched each cycle (Total)
system.cpu.fetch.rateDist::overflows                0      0.00%    100.00% # Number of instructions fetched each cycle (Total)
system.cpu.fetch.rateDist::min_value                0                       # Number of instructions fetched each cycle (Total)
system.cpu.fetch.rateDist::max_value                3                       # Number of instructions fetched each cycle (Total)
system.cpu.fetch.rateDist::total                16864                       # Number of instructions fetched each cycle (Total)
system.cpu.fetch.branchRate                  0.077074                       # Number of branch fetches per cycle
system.cpu.fetch.rate                        0.368804                       # Number of inst fetches per cycle
system.cpu.decode.IdleCycles                     7394                       # Number of cycles decode is idle
system.cpu.decode.BlockedCycles                  3918                       # Number of cycles decode is blocked
system.cpu.decode.RunCycles                      5039                       # Number of cycles decode is running
system.cpu.decode.UnblockCycles                   121                       # Number of cycles decode is unblocking
system.cpu.decode.SquashCycles                    392                       # Number of cycles decode is squashing
system.cpu.decode.BranchResolved                  314                       # Number of times decode resolved a branch
system.cpu.decode.BranchMispred                   150                       # Number of times decode detected a branch misprediction
system.cpu.decode.DecodedInsts                  10027                       # Number of instructions handled by decode
system.cpu.decode.SquashedInsts                  1497                       # Number of squashed instructions handled by decode
system.cpu.rename.SquashCycles                    392                       # Number of cycles rename is squashing
system.cpu.rename.IdleCycles                     8414                       # Number of cycles rename is idle
system.cpu.rename.BlockCycles                    1115                       # Number of cycles rename is blocking
system.cpu.rename.serializeStallCycles           1645                       # count of cycles rename stalled for serializing inst
system.cpu.rename.RunCycles                      4127                       # Number of cycles rename is running
system.cpu.rename.UnblockCycles                  1171                       # Number of cycles rename is unblocking
system.cpu.rename.RenamedInsts                   8993                       # Number of instructions processed by rename
system.cpu.rename.SquashedInsts                   445                       # Number of squashed instructions processed by rename
system.cpu.rename.ROBFullEvents                    30                       # Number of times rename has blocked due to ROB full
system.cpu.rename.IQFullEvents                      5                       # Number of times rename has blocked due to IQ full
system.cpu.rename.SQFullEvents                   1088                       # Number of times rename has blocked due to SQ full
system.cpu.rename.RenamedOperands                9478                       # Number of destination operands rename has renamed
system.cpu.rename.RenameLookups                 40588                       # Number of register rename lookups that rename has made
system.cpu.rename.int_rename_lookups             9902                       # Number of integer rename lookups
system.cpu.rename.fp_rename_lookups                16                       # Number of floating rename lookups
system.cpu.rename.CommittedMaps                  5684                       # Number of HB maps that are committed
system.cpu.rename.UndoneMaps                     3794                       # Number of HB maps that are undone due to squashing
system.cpu.rename.serializingInsts                 26                       # count of serializing insts renamed
system.cpu.rename.tempSerializingInsts             24                       # count of temporary serializing insts renamed
system.cpu.rename.skidInsts                       340                       # count of insts added to the skid buffer
system.cpu.memDep0.insertedLoads                 1786                       # Number of loads inserted to the mem dependence unit.
system.cpu.memDep0.insertedStores                1163                       # Number of stores inserted to the mem dependence unit.
system.cpu.memDep0.conflictingLoads                 1                       # Number of conflicting loads.
system.cpu.memDep0.conflictingStores                0                       # Number of conflicting stores.
system.cpu.iq.iqInstsAdded                       8451                       # Number of instructions added to the IQ (excludes non-spec)
system.cpu.iq.iqNonSpecInstsAdded                  34                       # Number of non-speculative instructions added to the IQ
system.cpu.iq.iqInstsIssued                      7294                       # Number of instructions issued
system.cpu.iq.iqSquashedInstsIssued               172                       # Number of squashed instructions issued
system.cpu.iq.iqSquashedInstsExamined            2680                       # Number of squashed instructions iterated over during squash; mainly for profiling
system.cpu.iq.iqSquashedOperandsExamined         7428                       # Number of squashed operands that are examined and possibly removed from graph
system.cpu.iq.iqSquashedNonSpecRemoved              2                       # Number of squashed non-spec instructions that were removed
system.cpu.iq.issued_per_cycle::samples         16864                       # Number of insts issued each cycle
system.cpu.iq.issued_per_cycle::mean         0.432519                       # Number of insts issued each cycle
system.cpu.iq.issued_per_cycle::stdev        0.828795                       # Number of insts issued each cycle
system.cpu.iq.issued_per_cycle::underflows            0      0.00%      0.00% # Number of insts issued each cycle
system.cpu.iq.issued_per_cycle::0               12572     74.55%     74.55% # Number of insts issued each cycle
system.cpu.iq.issued_per_cycle::1                1972     11.69%     86.24% # Number of insts issued each cycle
system.cpu.iq.issued_per_cycle::2                1676      9.94%     96.18% # Number of insts issued each cycle
system.cpu.iq.issued_per_cycle::3                 606      3.59%     99.77% # Number of insts issued each cycle
system.cpu.iq.issued_per_cycle::4                  38      0.23%    100.00% # Number of insts issued each cycle
system.cpu.iq.issued_per_cycle::5                   0      0.00%    100.00% # Number of insts issued each cycle
system.cpu.iq.issued_per_cycle::6                   0      0.00%    100.00% # Number of insts issued each cycle
system.cpu.iq.issued_per_cycle::7                   0      0.00%    100.00% # Number of insts issued each cycle
system.cpu.iq.issued_per_cycle::8                   0      0.00%    100.00% # Number of insts issued each cycle
system.cpu.iq.issued_per_cycle::overflows            0      0.00%    100.00% # Number of insts issued each cycle
system.cpu.iq.issued_per_cycle::min_value            0                       # Number of insts issued each cycle
system.cpu.iq.issued_per_cycle::max_value            4                       # Number of insts issued each cycle
system.cpu.iq.issued_per_cycle::total           16864                       # Number of insts issued each cycle
system.cpu.iq.fu_full::No_OpClass                   0      0.00%      0.00% # attempts to use FU when none available
system.cpu.iq.fu_full::IntAlu                     438     31.72%     31.72% # attempts to use FU when none available
system.cpu.iq.fu_full::IntMult                      0      0.00%     31.72% # attempts to use FU when none available
system.cpu.iq.fu_full::IntDiv                       0      0.00%     31.72% # attempts to use FU when none available
system.cpu.iq.fu_full::FloatAdd                     0      0.00%     31.72% # attempts to use FU when none available
system.cpu.iq.fu_full::FloatCmp                     0      0.00%     31.72% # attempts to use FU when none available
system.cpu.iq.fu_full::FloatCvt                     0      0.00%     31.72% # attempts to use FU when none available
system.cpu.iq.fu_full::FloatMult                    0      0.00%     31.72% # attempts to use FU when none available
system.cpu.iq.fu_full::FloatDiv                     0      0.00%     31.72% # attempts to use FU when none available
system.cpu.iq.fu_full::FloatSqrt                    0      0.00%     31.72% # attempts to use FU when none available
system.cpu.iq.fu_full::SimdAdd                      0      0.00%     31.72% # attempts to use FU when none available
system.cpu.iq.fu_full::SimdAddAcc                   0      0.00%     31.72% # attempts to use FU when none available
system.cpu.iq.fu_full::SimdAlu                      0      0.00%     31.72% # attempts to use FU when none available
system.cpu.iq.fu_full::SimdCmp                      0      0.00%     31.72% # attempts to use FU when none available
system.cpu.iq.fu_full::SimdCvt                      0      0.00%     31.72% # attempts to use FU when none available
system.cpu.iq.fu_full::SimdMisc                     0      0.00%     31.72% # attempts to use FU when none available
system.cpu.iq.fu_full::SimdMult                     0      0.00%     31.72% # attempts to use FU when none available
system.cpu.iq.fu_full::SimdMultAcc                  0      0.00%     31.72% # attempts to use FU when none available
system.cpu.iq.fu_full::SimdShift                    0      0.00%     31.72% # attempts to use FU when none available
system.cpu.iq.fu_full::SimdShiftAcc                 0      0.00%     31.72% # attempts to use FU when none available
system.cpu.iq.fu_full::SimdSqrt                     0      0.00%     31.72% # attempts to use FU when none available
system.cpu.iq.fu_full::SimdFloatAdd                 0      0.00%     31.72% # attempts to use FU when none available
system.cpu.iq.fu_full::SimdFloatAlu                 0      0.00%     31.72% # attempts to use FU when none available
system.cpu.iq.fu_full::SimdFloatCmp                 0      0.00%     31.72% # attempts to use FU when none available
system.cpu.iq.fu_full::SimdFloatCvt                 0      0.00%     31.72% # attempts to use FU when none available
system.cpu.iq.fu_full::SimdFloatDiv                 0      0.00%     31.72% # attempts to use FU when none available
system.cpu.iq.fu_full::SimdFloatMisc                0      0.00%     31.72% # attempts to use FU when none available
system.cpu.iq.fu_full::SimdFloatMult                0      0.00%     31.72% # attempts to use FU when none available
system.cpu.iq.fu_full::SimdFloatMultAcc             0      0.00%     31.72% # attempts to use FU when none available
system.cpu.iq.fu_full::SimdFloatSqrt                0      0.00%     31.72% # attempts to use FU when none available
system.cpu.iq.fu_full::MemRead                    430     31.14%     62.85% # attempts to use FU when none available
system.cpu.iq.fu_full::MemWrite                   513     37.15%    100.00% # attempts to use FU when none available
system.cpu.iq.fu_full::IprAccess                    0      0.00%    100.00% # attempts to use FU when none available
system.cpu.iq.fu_full::InstPrefetch                 0      0.00%    100.00% # attempts to use FU when none available
system.cpu.iq.FU_type_0::No_OpClass                 0      0.00%      0.00% # Type of FU issued
system.cpu.iq.FU_type_0::IntAlu                  4702     64.46%     64.46% # Type of FU issued
system.cpu.iq.FU_type_0::IntMult                    5      0.07%     64.53% # Type of FU issued
system.cpu.iq.FU_type_0::IntDiv                     0      0.00%     64.53% # Type of FU issued
system.cpu.iq.FU_type_0::FloatAdd                   0      0.00%     64.53% # Type of FU issued
system.cpu.iq.FU_type_0::FloatCmp                   0      0.00%     64.53% # Type of FU issued
system.cpu.iq.FU_type_0::FloatCvt                   0      0.00%     64.53% # Type of FU issued
system.cpu.iq.FU_type_0::FloatMult                  0      0.00%     64.53% # Type of FU issued
system.cpu.iq.FU_type_0::FloatDiv                   0      0.00%     64.53% # Type of FU issued
system.cpu.iq.FU_type_0::FloatSqrt                  0      0.00%     64.53% # Type of FU issued
system.cpu.iq.FU_type_0::SimdAdd                    0      0.00%     64.53% # Type of FU issued
system.cpu.iq.FU_type_0::SimdAddAcc                 0      0.00%     64.53% # Type of FU issued
system.cpu.iq.FU_type_0::SimdAlu                    0      0.00%     64.53% # Type of FU issued
system.cpu.iq.FU_type_0::SimdCmp                    0      0.00%     64.53% # Type of FU issued
system.cpu.iq.FU_type_0::SimdCvt                    0      0.00%     64.53% # Type of FU issued
system.cpu.iq.FU_type_0::SimdMisc                   0      0.00%     64.53% # Type of FU issued
system.cpu.iq.FU_type_0::SimdMult                   0      0.00%     64.53% # Type of FU issued
system.cpu.iq.FU_type_0::SimdMultAcc                0      0.00%     64.53% # Type of FU issued
system.cpu.iq.FU_type_0::SimdShift                  0      0.00%     64.53% # Type of FU issued
system.cpu.iq.FU_type_0::SimdShiftAcc               0      0.00%     64.53% # Type of FU issued
system.cpu.iq.FU_type_0::SimdSqrt                   0      0.00%     64.53% # Type of FU issued
system.cpu.iq.FU_type_0::SimdFloatAdd               0      0.00%     64.53% # Type of FU issued
system.cpu.iq.FU_type_0::SimdFloatAlu               0      0.00%     64.53% # Type of FU issued
system.cpu.iq.FU_type_0::SimdFloatCmp               0      0.00%     64.53% # Type of FU issued
system.cpu.iq.FU_type_0::SimdFloatCvt               0      0.00%     64.53% # Type of FU issued
system.cpu.iq.FU_type_0::SimdFloatDiv               0      0.00%     64.53% # Type of FU issued
system.cpu.iq.FU_type_0::SimdFloatMisc              3      0.04%     64.57% # Type of FU issued
system.cpu.iq.FU_type_0::SimdFloatMult              0      0.00%     64.57% # Type of FU issued
system.cpu.iq.FU_type_0::SimdFloatMultAcc            0      0.00%     64.57% # Type of FU issued
system.cpu.iq.FU_type_0::SimdFloatSqrt              0      0.00%     64.57% # Type of FU issued
system.cpu.iq.FU_type_0::MemRead                 1566     21.47%     86.04% # Type of FU issued
system.cpu.iq.FU_type_0::MemWrite                1018     13.96%    100.00% # Type of FU issued
system.cpu.iq.FU_type_0::IprAccess                  0      0.00%    100.00% # Type of FU issued
system.cpu.iq.FU_type_0::InstPrefetch               0      0.00%    100.00% # Type of FU issued
system.cpu.iq.FU_type_0::total                   7294                       # Type of FU issued
system.cpu.iq.rate                           0.238819                       # Inst issue rate
system.cpu.iq.fu_busy_cnt                        1381                       # FU busy when requested
system.cpu.iq.fu_busy_rate                   0.189334                       # FU busy rate (busy events/executed inst)
system.cpu.iq.int_inst_queue_reads              32961                       # Number of integer instruction queue reads
system.cpu.iq.int_inst_queue_writes             11154                       # Number of integer instruction queue writes
system.cpu.iq.int_inst_queue_wakeup_accesses         6707                       # Number of integer instruction queue wakeup accesses
system.cpu.iq.fp_inst_queue_reads                  44                       # Number of floating instruction queue reads
system.cpu.iq.fp_inst_queue_writes                 16                       # Number of floating instruction queue writes
system.cpu.iq.fp_inst_queue_wakeup_accesses           16                       # Number of floating instruction queue wakeup accesses
system.cpu.iq.int_alu_accesses                   8647                       # Number of integer alu accesses
system.cpu.iq.fp_alu_accesses                      28                       # Number of floating point alu accesses
system.cpu.iew.lsq.thread0.forwLoads                6                       # Number of loads that had data forwarded from stores
system.cpu.iew.lsq.thread0.invAddrLoads             0                       # Number of loads ignored due to an invalid address
system.cpu.iew.lsq.thread0.squashedLoads          762                       # Number of loads squashed
system.cpu.iew.lsq.thread0.ignoredResponses            0                       # Number of memory responses ignored because the instruction is squashed
system.cpu.iew.lsq.thread0.memOrderViolation            5                       # Number of memory ordering violations
system.cpu.iew.lsq.thread0.squashedStores          260                       # Number of stores squashed
system.cpu.iew.lsq.thread0.invAddrSwpfs             0                       # Number of software prefetches ignored due to an invalid address
system.cpu.iew.lsq.thread0.blockedLoads             0                       # Number of blocked loads due to partial load-store forwarding
system.cpu.iew.lsq.thread0.rescheduledLoads            3                       # Number of loads that were rescheduled
system.cpu.iew.lsq.thread0.cacheBlocked            17                       # Number of times an access to memory failed due to the cache being blocked
system.cpu.iew.iewIdleCycles                        0                       # Number of cycles IEW is idle
system.cpu.iew.iewSquashCycles                    392                       # Number of cycles IEW is squashing
system.cpu.iew.iewBlockCycles                     272                       # Number of cycles IEW is blocking
system.cpu.iew.iewUnblockCycles                   164                       # Number of cycles IEW is unblocking
system.cpu.iew.iewDispatchedInsts                8500                       # Number of instructions dispatched to IQ
system.cpu.iew.iewDispSquashedInsts                 0                       # Number of squashed instructions skipped by dispatch
system.cpu.iew.iewDispLoadInsts                  1786                       # Number of dispatched load instructions
system.cpu.iew.iewDispStoreInsts                 1163                       # Number of dispatched store instructions
system.cpu.iew.iewDispNonSpecInsts                 24                       # Number of dispatched non-speculative instructions
system.cpu.iew.iewIQFullEvents                      1                       # Number of times the IQ has become full, causing a stall
system.cpu.iew.iewLSQFullEvents                   160                       # Number of times the LSQ has become full, causing a stall
system.cpu.iew.memOrderViolationEvents              5                       # Number of memory order violations
system.cpu.iew.predictedTakenIncorrect             63                       # Number of branches that were predicted taken incorrectly
system.cpu.iew.predictedNotTakenIncorrect          318                       # Number of branches that were predicted not taken incorrectly
system.cpu.iew.branchMispredicts                  381                       # Number of branch mispredicts detected at execute
system.cpu.iew.iewExecutedInsts                  6878                       # Number of executed instructions
system.cpu.iew.iewExecLoadInsts                  1370                       # Number of load instructions executed
system.cpu.iew.iewExecSquashedInsts               416                       # Number of squashed instructions skipped in execute
system.cpu.iew.exec_swp                             0                       # number of swp insts executed
system.cpu.iew.exec_nop                            15                       # number of nop insts executed
system.cpu.iew.exec_refs                         2342                       # number of memory reference insts executed
system.cpu.iew.exec_branches                     1319                       # Number of branches executed
system.cpu.iew.exec_stores                        972                       # Number of stores executed
system.cpu.iew.exec_rate                     0.225198                       # Inst execution rate
system.cpu.iew.wb_sent                           6758                       # cumulative count of insts sent to commit
system.cpu.iew.wb_count                          6723                       # cumulative count of insts written-back
system.cpu.iew.wb_producers                      3023                       # num instructions producing a value
system.cpu.iew.wb_consumers                      5232                       # num instructions consuming a value
system.cpu.iew.wb_penalized                         0                       # number of instrctions required to write to 'other' IQ
system.cpu.iew.wb_rate                       0.220123                       # insts written-back per cycle
system.cpu.iew.wb_fanout                     0.577791                       # average fanout of values written-back
system.cpu.iew.wb_penalized_rate                    0                       # fraction of instructions written-back that wrote to 'other' IQ
system.cpu.commit.commitSquashedInsts            2471                       # The number of squashed insts skipped by commit
system.cpu.commit.commitNonSpecStalls              32                       # The number of times commit has been forced to stall to communicate backwards
system.cpu.commit.branchMispredicts               373                       # The number of times a branch was mispredicted
system.cpu.commit.committed_per_cycle::samples        16310                       # Number of insts commited each cycle
system.cpu.commit.committed_per_cycle::mean     0.339546                       # Number of insts commited each cycle
system.cpu.commit.committed_per_cycle::stdev     0.960422                       # Number of insts commited each cycle
system.cpu.commit.committed_per_cycle::underflows            0      0.00%      0.00% # Number of insts commited each cycle
system.cpu.commit.committed_per_cycle::0        13496     82.75%     82.75% # Number of insts commited each cycle
system.cpu.commit.committed_per_cycle::1         1512      9.27%     92.02% # Number of insts commited each cycle
system.cpu.commit.committed_per_cycle::2          644      3.95%     95.97% # Number of insts commited each cycle
system.cpu.commit.committed_per_cycle::3          307      1.88%     97.85% # Number of insts commited each cycle
system.cpu.commit.committed_per_cycle::4          163      1.00%     98.85% # Number of insts commited each cycle
system.cpu.commit.committed_per_cycle::5           69      0.42%     99.27% # Number of insts commited each cycle
system.cpu.commit.committed_per_cycle::6           52      0.32%     99.59% # Number of insts commited each cycle
system.cpu.commit.committed_per_cycle::7           28      0.17%     99.76% # Number of insts commited each cycle
system.cpu.commit.committed_per_cycle::8           39      0.24%    100.00% # Number of insts commited each cycle
system.cpu.commit.committed_per_cycle::overflows            0      0.00%    100.00% # Number of insts commited each cycle
system.cpu.commit.committed_per_cycle::min_value            0                       # Number of insts commited each cycle
system.cpu.commit.committed_per_cycle::max_value            8                       # Number of insts commited each cycle
system.cpu.commit.committed_per_cycle::total        16310                       # Number of insts commited each cycle
system.cpu.commit.committedInsts                 4774                       # Number of instructions committed
system.cpu.commit.committedOps                   5538                       # Number of ops (including micro ops) committed
system.cpu.commit.swp_count                         0                       # Number of s/w prefetches committed
system.cpu.commit.refs                           1927                       # Number of memory references committed
system.cpu.commit.loads                          1024                       # Number of loads committed
system.cpu.commit.membars                          10                       # Number of memory barriers committed
system.cpu.commit.branches                       1053                       # Number of branches committed
system.cpu.commit.fp_insts                         16                       # Number of committed floating point instructions.
system.cpu.commit.int_insts                      4735                       # Number of committed integer instructions.
system.cpu.commit.function_calls                   84                       # Number of function calls committed.
system.cpu.commit.op_class_0::No_OpClass            0      0.00%      0.00% # Class of committed instruction
system.cpu.commit.op_class_0::IntAlu             3604     65.08%     65.08% # Class of committed instruction
system.cpu.commit.op_class_0::IntMult               4      0.07%     65.15% # Class of committed instruction
system.cpu.commit.op_class_0::IntDiv                0      0.00%     65.15% # Class of committed instruction
system.cpu.commit.op_class_0::FloatAdd              0      0.00%     65.15% # Class of committed instruction
system.cpu.commit.op_class_0::FloatCmp              0      0.00%     65.15% # Class of committed instruction
system.cpu.commit.op_class_0::FloatCvt              0      0.00%     65.15% # Class of committed instruction
system.cpu.commit.op_class_0::FloatMult             0      0.00%     65.15% # Class of committed instruction
system.cpu.commit.op_class_0::FloatDiv              0      0.00%     65.15% # Class of committed instruction
system.cpu.commit.op_class_0::FloatSqrt             0      0.00%     65.15% # Class of committed instruction
system.cpu.commit.op_class_0::SimdAdd               0      0.00%     65.15% # Class of committed instruction
system.cpu.commit.op_class_0::SimdAddAcc            0      0.00%     65.15% # Class of committed instruction
system.cpu.commit.op_class_0::SimdAlu               0      0.00%     65.15% # Class of committed instruction
system.cpu.commit.op_class_0::SimdCmp               0      0.00%     65.15% # Class of committed instruction
system.cpu.commit.op_class_0::SimdCvt               0      0.00%     65.15% # Class of committed instruction
system.cpu.commit.op_class_0::SimdMisc              0      0.00%     65.15% # Class of committed instruction
system.cpu.commit.op_class_0::SimdMult              0      0.00%     65.15% # Class of committed instruction
system.cpu.commit.op_class_0::SimdMultAcc            0      0.00%     65.15% # Class of committed instruction
system.cpu.commit.op_class_0::SimdShift             0      0.00%     65.15% # Class of committed instruction
system.cpu.commit.op_class_0::SimdShiftAcc            0      0.00%     65.15% # Class of committed instruction
system.cpu.commit.op_class_0::SimdSqrt              0      0.00%     65.15% # Class of committed instruction
system.cpu.commit.op_class_0::SimdFloatAdd            0      0.00%     65.15% # Class of committed instruction
system.cpu.commit.op_class_0::SimdFloatAlu            0      0.00%     65.15% # Class of committed instruction
system.cpu.commit.op_class_0::SimdFloatCmp            0      0.00%     65.15% # Class of committed instruction
system.cpu.commit.op_class_0::SimdFloatCvt            0      0.00%     65.15% # Class of committed instruction
system.cpu.commit.op_class_0::SimdFloatDiv            0      0.00%     65.15% # Class of committed instruction
system.cpu.commit.op_class_0::SimdFloatMisc            3      0.05%     65.20% # Class of committed instruction
system.cpu.commit.op_class_0::SimdFloatMult            0      0.00%     65.20% # Class of committed instruction
system.cpu.commit.op_class_0::SimdFloatMultAcc            0      0.00%     65.20% # Class of committed instruction
system.cpu.commit.op_class_0::SimdFloatSqrt            0      0.00%     65.20% # Class of committed instruction
system.cpu.commit.op_class_0::MemRead            1024     18.49%     83.69% # Class of committed instruction
system.cpu.commit.op_class_0::MemWrite            903     16.31%    100.00% # Class of committed instruction
system.cpu.commit.op_class_0::IprAccess             0      0.00%    100.00% # Class of committed instruction
system.cpu.commit.op_class_0::InstPrefetch            0      0.00%    100.00% # Class of committed instruction
system.cpu.commit.op_class_0::total              5538                       # Class of committed instruction
system.cpu.commit.bw_lim_events                    39                       # number cycles where commit BW limit reached
system.cpu.commit.bw_limited                        0                       # number of insts not committed due to BW limits
system.cpu.rob.rob_reads                        24123                       # The number of ROB reads
system.cpu.rob.rob_writes                       16574                       # The number of ROB writes
system.cpu.timesIdled                             230                       # Number of times that the entire CPU went into an idle state and unscheduled itself
system.cpu.idleCycles                           13678                       # Total number of cycles that the CPU has spent unscheduled due to idling
system.cpu.committedInsts                        4774                       # Number of Instructions Simulated
system.cpu.committedOps                          5538                       # Number of Ops (including micro ops) Simulated
system.cpu.cpi                               6.397570                       # CPI: Cycles Per Instruction
system.cpu.cpi_total                         6.397570                       # CPI: Total CPI of All Threads
system.cpu.ipc                               0.156309                       # IPC: Instructions Per Cycle
system.cpu.ipc_total                         0.156309                       # IPC: Total IPC of All Threads
system.cpu.int_regfile_reads                     6885                       # number of integer regfile reads
system.cpu.int_regfile_writes                    3840                       # number of integer regfile writes
system.cpu.fp_regfile_reads                        16                       # number of floating regfile reads
system.cpu.cc_regfile_reads                     24298                       # number of cc regfile reads
system.cpu.cc_regfile_writes                     3023                       # number of cc regfile writes
system.cpu.misc_regfile_reads                    2493                       # number of misc regfile reads
system.cpu.misc_regfile_writes                     20                       # number of misc regfile writes
system.cpu.icache.tags.replacements                38                       # number of replacements
system.cpu.icache.tags.tagsinuse           129.688426                       # Cycle average of tags in use
system.cpu.icache.tags.total_refs                 480                       # Total number of references to valid blocks.
system.cpu.icache.tags.sampled_refs                38                       # Sample count of references to valid blocks.
system.cpu.icache.tags.avg_refs             12.631579                       # Average number of references to valid blocks.
system.cpu.icache.tags.warmup_cycle                 0                       # Cycle when the warmup percentage was hit.
system.cpu.icache.tags.occ_blocks::cpu.inst   129.688426                       # Average occupied blocks per requestor
system.cpu.icache.tags.occ_percent::cpu.inst     0.253298                       # Average percentage of cache occupancy
system.cpu.icache.tags.occ_percent::total     0.253298                       # Average percentage of cache occupancy
system.cpu.icache.tags.occ_task_id_blocks::1024          237                       # Occupied blocks per task id
system.cpu.icache.tags.age_task_id_blocks_1024::0          163                       # Occupied blocks per task id
system.cpu.icache.tags.age_task_id_blocks_1024::1           74                       # Occupied blocks per task id
system.cpu.icache.tags.occ_task_id_percent::1024     0.462891                       # Percentage of cache occupancy per task id
system.cpu.icache.tags.tag_accesses              8011                       # Number of tag accesses
system.cpu.icache.tags.data_accesses             8011                       # Number of data accesses
system.cpu.icache.ReadReq_hits::cpu.inst         3540                       # number of ReadReq hits
system.cpu.icache.ReadReq_hits::total            3540                       # number of ReadReq hits
system.cpu.icache.demand_hits::cpu.inst          3540                       # number of demand (read+write) hits
system.cpu.icache.demand_hits::total             3540                       # number of demand (read+write) hits
system.cpu.icache.overall_hits::cpu.inst         3540                       # number of overall hits
system.cpu.icache.overall_hits::total            3540                       # number of overall hits
system.cpu.icache.ReadReq_misses::cpu.inst          328                       # number of ReadReq misses
system.cpu.icache.ReadReq_misses::total           328                       # number of ReadReq misses
system.cpu.icache.demand_misses::cpu.inst          328                       # number of demand (read+write) misses
system.cpu.icache.demand_misses::total            328                       # number of demand (read+write) misses
system.cpu.icache.overall_misses::cpu.inst          328                       # number of overall misses
system.cpu.icache.overall_misses::total           328                       # number of overall misses
system.cpu.icache.ReadReq_miss_latency::cpu.inst     15029494                       # number of ReadReq miss cycles
system.cpu.icache.ReadReq_miss_latency::total     15029494                       # number of ReadReq miss cycles
system.cpu.icache.demand_miss_latency::cpu.inst     15029494                       # number of demand (read+write) miss cycles
system.cpu.icache.demand_miss_latency::total     15029494                       # number of demand (read+write) miss cycles
system.cpu.icache.overall_miss_latency::cpu.inst     15029494                       # number of overall miss cycles
system.cpu.icache.overall_miss_latency::total     15029494                       # number of overall miss cycles
system.cpu.icache.ReadReq_accesses::cpu.inst         3868                       # number of ReadReq accesses(hits+misses)
system.cpu.icache.ReadReq_accesses::total         3868                       # number of ReadReq accesses(hits+misses)
system.cpu.icache.demand_accesses::cpu.inst         3868                       # number of demand (read+write) accesses
system.cpu.icache.demand_accesses::total         3868                       # number of demand (read+write) accesses
system.cpu.icache.overall_accesses::cpu.inst         3868                       # number of overall (read+write) accesses
system.cpu.icache.overall_accesses::total         3868                       # number of overall (read+write) accesses
system.cpu.icache.ReadReq_miss_rate::cpu.inst     0.084798                       # miss rate for ReadReq accesses
system.cpu.icache.ReadReq_miss_rate::total     0.084798                       # miss rate for ReadReq accesses
system.cpu.icache.demand_miss_rate::cpu.inst     0.084798                       # miss rate for demand accesses
system.cpu.icache.demand_miss_rate::total     0.084798                       # miss rate for demand accesses
system.cpu.icache.overall_miss_rate::cpu.inst     0.084798                       # miss rate for overall accesses
system.cpu.icache.overall_miss_rate::total     0.084798                       # miss rate for overall accesses
system.cpu.icache.ReadReq_avg_miss_latency::cpu.inst 45821.628049                       # average ReadReq miss latency
system.cpu.icache.ReadReq_avg_miss_latency::total 45821.628049                       # average ReadReq miss latency
system.cpu.icache.demand_avg_miss_latency::cpu.inst 45821.628049                       # average overall miss latency
[...]
system.cpu.icache.demand_misses::cpu.inst           19                       # number of demand (read+write) misses
system.cpu.icache.demand_misses::total             19                       # number of demand (read+write) misses
system.cpu.icache.overall_misses::cpu.inst           19                       # number of overall misses
system.cpu.icache.overall_misses::total            19                       # number of overall misses
system.cpu.icache.ReadReq_miss_latency::cpu.inst      1045248                       # number of ReadReq miss cycles
system.cpu.icache.ReadReq_miss_latency::total      1045248                       # number of ReadReq miss cycles
system.cpu.icache.demand_miss_latency::cpu.inst      1045248                       # number of demand (read+write) miss cycles
system.cpu.icache.demand_miss_latency::total      1045248                       # number of demand (read+write) miss cycles
system.cpu.icache.overall_miss_latency::cpu.inst      1045248                       # number of overall miss cycles
system.cpu.icache.overall_miss_latency::total      1045248                       # number of overall miss cycles
system.cpu.icache.ReadReq_accesses::cpu.inst          235                       # number of ReadReq accesses(hits+misses)
system.cpu.icache.ReadReq_accesses::total          235                       # number of ReadReq accesses(hits+misses)
system.cpu.icache.demand_accesses::cpu.inst          235                       # number of demand (read+write) accesses
system.cpu.icache.demand_accesses::total          235                       # number of demand (read+write) accesses
system.cpu.icache.overall_accesses::cpu.inst          235                       # number of overall (read+write) accesses
system.cpu.icache.overall_accesses::total          235                       # number of overall (read+write) accesses
system.cpu.icache.ReadReq_miss_rate::cpu.inst     0.080851                       # miss rate for ReadReq accesses
system.cpu.icache.ReadReq_miss_rate::total     0.080851                       # miss rate for ReadReq accesses
system.cpu.icache.demand_miss_rate::cpu.inst     0.080851                       # miss rate for demand accesses
system.cpu.icache.demand_miss_rate::total     0.080851                       # miss rate for demand accesses
system.cpu.icache.overall_miss_rate::cpu.inst     0.080851                       # miss rate for overall accesses
system.cpu.icache.overall_miss_rate::total     0.080851                       # miss rate for overall accesses
system.cpu.icache.ReadReq_avg_miss_latency::cpu.inst 55013.052632                       # average ReadReq miss latency
system.cpu.icache.ReadReq_avg_miss_latency::total 55013.052632                       # average ReadReq miss latency
system.cpu.icache.demand_avg_miss_latency::cpu.inst 55013.052632                       # average overall miss latency
system.cpu.icache.demand_avg_miss_latency::total 55013.052632                       # average overall miss latency
system.cpu.icache.overall_avg_miss_latency::cpu.inst 55013.052632                       # average overall miss latency
system.cpu.icache.overall_avg_miss_latency::total 55013.052632                       # average overall miss latency
system.cpu.icache.blocked_cycles::no_mshrs          293                       # number of cycles access was blocked
system.cpu.icache.blocked_cycles::no_targets            0                       # number of cycles access was blocked
system.cpu.icache.blocked::no_mshrs                 6                       # number of cycles access was blocked
system.cpu.icache.blocked::no_targets               0                       # number of cycles access was blocked
system.cpu.icache.avg_blocked_cycles::no_mshrs    48.833333                       # average number of cycles each access was blocked
system.cpu.icache.avg_blocked_cycles::no_targets          nan                       # average number of cycles each access was blocked
system.cpu.icache.fast_writes                       0                       # number of fast writes performed
system.cpu.icache.cache_copies                      0                       # number of cache copies performed
system.cpu.icache.ReadReq_mshr_hits::cpu.inst            3                       # number of ReadReq MSHR hits
system.cpu.icache.ReadReq_mshr_hits::total            3                       # number of ReadReq MSHR hits
system.cpu.icache.demand_mshr_hits::cpu.inst            3                       # number of demand (read+write) MSHR hits
system.cpu.icache.demand_mshr_hits::total            3                       # number of demand (read+write) MSHR hits
system.cpu.icache.overall_mshr_hits::cpu.inst            3                       # number of overall MSHR hits
system.cpu.icache.overall_mshr_hits::total            3                       # number of overall MSHR hits
system.cpu.icache.ReadReq_mshr_misses::cpu.inst           16                       # number of ReadReq MSHR misses
system.cpu.icache.ReadReq_mshr_misses::total           16                       # number of ReadReq MSHR misses
system.cpu.icache.demand_mshr_misses::cpu.inst           16                       # number of demand (read+write) MSHR misses
system.cpu.icache.demand_mshr_misses::total           16                       # number of demand (read+write) MSHR misses
system.cpu.icache.overall_mshr_misses::cpu.inst           16                       # number of overall MSHR misses
system.cpu.icache.overall_mshr_misses::total           16                       # number of overall MSHR misses
system.cpu.icache.ReadReq_mshr_miss_latency::cpu.inst       890998                       # number of ReadReq MSHR miss cycles
system.cpu.icache.ReadReq_mshr_miss_latency::total       890998                       # number of ReadReq MSHR miss cycles
system.cpu.icache.demand_mshr_miss_latency::cpu.inst       890998                       # number of demand (read+write) MSHR miss cycles
system.cpu.icache.demand_mshr_miss_latency::total       890998                       # number of demand (read+write) MSHR miss cycles
system.cpu.icache.overall_mshr_miss_latency::cpu.inst       890998                       # number of overall MSHR miss cycles
system.cpu.icache.overall_mshr_miss_latency::total       890998                       # number of overall MSHR miss cycles
system.cpu.icache.ReadReq_mshr_miss_rate::cpu.inst     0.068085                       # mshr miss rate for ReadReq accesses
system.cpu.icache.ReadReq_mshr_miss_rate::total     0.068085                       # mshr miss rate for ReadReq accesses
system.cpu.icache.demand_mshr_miss_rate::cpu.inst     0.068085                       # mshr miss rate for demand accesses
system.cpu.icache.demand_mshr_miss_rate::total     0.068085                       # mshr miss rate for demand accesses
system.cpu.icache.overall_mshr_miss_rate::cpu.inst     0.068085                       # mshr miss rate for overall accesses
system.cpu.icache.overall_mshr_miss_rate::total     0.068085                       # mshr miss rate for overall accesses
system.cpu.icache.ReadReq_avg_mshr_miss_latency::cpu.inst 55687.375000                       # average ReadReq mshr miss latency
system.cpu.icache.ReadReq_avg_mshr_miss_latency::total 55687.375000                       # average ReadReq mshr miss latency
system.cpu.icache.demand_avg_mshr_miss_latency::cpu.inst 55687.375000                       # average overall mshr miss latency
system.cpu.icache.demand_avg_mshr_miss_latency::total 55687.375000                       # average overall mshr miss latency
system.cpu.icache.overall_avg_mshr_miss_latency::cpu.inst 55687.375000                       # average overall mshr miss latency
system.cpu.icache.overall_avg_mshr_miss_latency::total 55687.375000                       # average overall mshr miss latency
system.cpu.icache.no_allocate_misses                0                       # Number of misses that were no-allocate
system.cpu.dcache.tags.replacements                 0                       # number of replacements
system.cpu.dcache.tags.tagsinuse           142.942978                       # Cycle average of tags in use
system.cpu.dcache.tags.total_refs                1969                       # Total number of references to valid blocks.
system.cpu.dcache.tags.sampled_refs               143                       # Sample count of references to valid blocks.
system.cpu.dcache.tags.avg_refs             13.769231                       # Average number of references to valid blocks.
system.cpu.dcache.tags.warmup_cycle                 0                       # Cycle when the warmup percentage was hit.
system.cpu.dcache.tags.occ_blocks::cpu.data   142.942978                       # Average occupied blocks per requestor
system.cpu.dcache.tags.occ_percent::cpu.data     0.139593                       # Average percentage of cache occupancy
system.cpu.dcache.tags.occ_percent::total     0.139593                       # Average percentage of cache occupancy
system.cpu.dcache.tags.occ_task_id_blocks::1024          143                       # Occupied blocks per task id
system.cpu.dcache.tags.age_task_id_blocks_1024::0           55                       # Occupied blocks per task id
system.cpu.dcache.tags.age_task_id_blocks_1024::1           88                       # Occupied blocks per task id
system.cpu.dcache.tags.occ_task_id_percent::1024     0.139648                       # Percentage of cache occupancy per task id
system.cpu.dcache.tags.tag_accesses               253                       # Number of tag accesses
system.cpu.dcache.tags.data_accesses              253                       # Number of data accesses
system.cpu.dcache.ReadReq_hits::cpu.data           74                       # number of ReadReq hits
system.cpu.dcache.ReadReq_hits::total              74                       # number of ReadReq hits
system.cpu.dcache.WriteReq_hits::cpu.data           44                       # number of WriteReq hits
system.cpu.dcache.WriteReq_hits::total             44                       # number of WriteReq hits
system.cpu.dcache.LoadLockedReq_hits::cpu.data            2                       # number of LoadLockedReq hits
system.cpu.dcache.LoadLockedReq_hits::total            2                       # number of LoadLockedReq hits
system.cpu.dcache.StoreCondReq_hits::cpu.data            2                       # number of StoreCondReq hits
system.cpu.dcache.StoreCondReq_hits::total            2                       # number of StoreCondReq hits
system.cpu.dcache.demand_hits::cpu.data           118                       # number of demand (read+write) hits
system.cpu.dcache.demand_hits::total              118                       # number of demand (read+write) hits
system.cpu.dcache.overall_hits::cpu.data          118                       # number of overall hits
system.cpu.dcache.overall_hits::total             118                       # number of overall hits
system.cpu.dcache.ReadReq_misses::cpu.data            4                       # number of ReadReq misses
system.cpu.dcache.ReadReq_misses::total             4                       # number of ReadReq misses
system.cpu.dcache.demand_misses::cpu.data            4                       # number of demand (read+write) misses
system.cpu.dcache.demand_misses::total              4                       # number of demand (read+write) misses
system.cpu.dcache.overall_misses::cpu.data            4                       # number of overall misses
system.cpu.dcache.overall_misses::total             4                       # number of overall misses
system.cpu.dcache.ReadReq_miss_latency::cpu.data       145250                       # number of ReadReq miss cycles
system.cpu.dcache.ReadReq_miss_latency::total       145250                       # number of ReadReq miss cycles
system.cpu.dcache.demand_miss_latency::cpu.data       145250                       # number of demand (read+write) miss cycles
system.cpu.dcache.demand_miss_latency::total       145250                       # number of demand (read+write) miss cycles
system.cpu.dcache.overall_miss_latency::cpu.data       145250                       # number of overall miss cycles
system.cpu.dcache.overall_miss_latency::total       145250                       # number of overall miss cycles
system.cpu.dcache.ReadReq_accesses::cpu.data           78                       # number of ReadReq accesses(hits+misses)
system.cpu.dcache.ReadReq_accesses::total           78                       # number of ReadReq accesses(hits+misses)
system.cpu.dcache.WriteReq_accesses::cpu.data           44                       # number of WriteReq accesses(hits+misses)
system.cpu.dcache.WriteReq_accesses::total           44                       # number of WriteReq accesses(hits+misses)
system.cpu.dcache.LoadLockedReq_accesses::cpu.data            2                       # number of LoadLockedReq accesses(hits+misses)
system.cpu.dcache.LoadLockedReq_accesses::total            2                       # number of LoadLockedReq accesses(hits+misses)
system.cpu.dcache.StoreCondReq_accesses::cpu.data            2                       # number of StoreCondReq accesses(hits+misses)
system.cpu.dcache.StoreCondReq_accesses::total            2                       # number of StoreCondReq accesses(hits+misses)
system.cpu.dcache.demand_accesses::cpu.data          122                       # number of demand (read+write) accesses
system.cpu.dcache.demand_accesses::total          122                       # number of demand (read+write) accesses
system.cpu.dcache.overall_accesses::cpu.data          122                       # number of overall (read+write) accesses
system.cpu.dcache.overall_accesses::total          122                       # number of overall (read+write) accesses
system.cpu.dcache.ReadReq_miss_rate::cpu.data     0.051282                       # miss rate for ReadReq accesses
system.cpu.dcache.ReadReq_miss_rate::total     0.051282                       # miss rate for ReadReq accesses
system.cpu.dcache.demand_miss_rate::cpu.data     0.032787                       # miss rate for demand accesses
system.cpu.dcache.demand_miss_rate::total     0.032787                       # miss rate for demand accesses
system.cpu.dcache.overall_miss_rate::cpu.data     0.032787                       # miss rate for overall accesses
system.cpu.dcache.overall_miss_rate::total     0.032787                       # miss rate for overall accesses
system.cpu.dcache.ReadReq_avg_miss_latency::cpu.data 36312.500000                       # average ReadReq miss latency
system.cpu.dcache.ReadReq_avg_miss_latency::total 36312.500000                       # average ReadReq miss latency
system.cpu.dcache.demand_avg_miss_latency::cpu.data 36312.500000                       # average overall miss latency
system.cpu.dcache.demand_avg_miss_latency::total 36312.500000                       # average overall miss latency
system.cpu.dcache.overall_avg_miss_latency::cpu.data 36312.500000                       # average overall miss latency
system.cpu.dcache.overall_avg_miss_latency::total 36312.500000                       # average overall miss latency
system.cpu.dcache.blocked_cycles::no_mshrs            0                       # number of cycles access was blocked
system.cpu.dcache.blocked_cycles::no_targets            0                       # number of cycles access was blocked
system.cpu.dcache.blocked::no_mshrs                 0                       # number of cycles access was blocked
system.cpu.dcache.blocked::no_targets               0                       # number of cycles access was blocked
system.cpu.dcache.avg_blocked_cycles::no_mshrs          nan                       # average number of cycles each access was blocked
system.cpu.dcache.avg_blocked_cycles::no_targets          nan                       # average number of cycles each access was blocked
system.cpu.dcache.fast_writes                       0                       # number of fast writes performed
system.cpu.dcache.cache_copies                      0                       # number of cache copies performed
system.cpu.dcache.ReadReq_mshr_hits::cpu.data            2                       # number of ReadReq MSHR hits
system.cpu.dcache.ReadReq_mshr_hits::total            2                       # number of ReadReq MSHR hits
system.cpu.dcache.demand_mshr_hits::cpu.data            2                       # number of demand (read+write) MSHR hits
system.cpu.dcache.demand_mshr_hits::total            2                       # number of demand (read+write) MSHR hits
system.cpu.dcache.overall_mshr_hits::cpu.data            2                       # number of overall MSHR hits
system.cpu.dcache.overall_mshr_hits::total            2                       # number of overall MSHR hits
system.cpu.dcache.ReadReq_mshr_misses::cpu.data            2                       # number of ReadReq MSHR misses
system.cpu.dcache.ReadReq_mshr_misses::total            2                       # number of ReadReq MSHR misses
system.cpu.dcache.demand_mshr_misses::cpu.data            2                       # number of demand (read+write) MSHR misses
system.cpu.dcache.demand_mshr_misses::total            2                       # number of demand (read+write) MSHR misses
system.cpu.dcache.overall_mshr_misses::cpu.data            2                       # number of overall MSHR misses
system.cpu.dcache.overall_mshr_misses::total            2                       # number of overall MSHR misses
system.cpu.dcache.ReadReq_mshr_miss_latency::cpu.data        40750                       # number of ReadReq MSHR miss cycles
system.cpu.dcache.ReadReq_mshr_miss_latency::total        40750                       # number of ReadReq MSHR miss cycles
system.cpu.dcache.demand_mshr_miss_latency::cpu.data        40750                       # number of demand (read+write) MSHR miss cycles
system.cpu.dcache.demand_mshr_miss_latency::total        40750                       # number of demand (read+write) MSHR miss cycles
system.cpu.dcache.overall_mshr_miss_latency::cpu.data        40750                       # number of overall MSHR miss cycles
system.cpu.dcache.overall_mshr_miss_latency::total        40750                       # number of overall MSHR miss cycles
system.cpu.dcache.ReadReq_mshr_miss_rate::cpu.data     0.025641                       # mshr miss rate for ReadReq accesses
system.cpu.dcache.ReadReq_mshr_miss_rate::total     0.025641                       # mshr miss rate for ReadReq accesses
system.cpu.dcache.demand_mshr_miss_rate::cpu.data     0.016393                       # mshr miss rate for demand accesses
system.cpu.dcache.demand_mshr_miss_rate::total     0.016393                       # mshr miss rate for demand accesses
system.cpu.dcache.overall_mshr_miss_rate::cpu.data     0.016393                       # mshr miss rate for overall accesses
system.cpu.dcache.overall_mshr_miss_rate::total     0.016393                       # mshr miss rate for overall accesses
system.cpu.dcache.ReadReq_avg_mshr_miss_latency::cpu.data        20375                       # average ReadReq mshr miss latency
system.cpu.dcache.ReadReq_avg_mshr_miss_latency::total        20375                       # average ReadReq mshr miss latency
system.cpu.dcache.demand_avg_mshr_miss_latency::cpu.data        20375                       # average overall mshr miss latency
system.cpu.dcache.demand_avg_mshr_miss_latency::total        20375                       # average overall mshr miss latency
system.cpu.dcache.overall_avg_mshr_miss_latency::cpu.data        20375                       # average overall mshr miss latency
system.cpu.dcache.overall_avg_mshr_miss_latency::total        20375                       # average overall mshr miss latency
system.cpu.dcache.no_allocate_misses                0                       # Number of misses that were no-allocate

---------- End Simulation Statistics   ----------
