
---------- Begin Simulation Statistics ----------
sim_seconds                                  0.000015                       # Number of seconds simulated
sim_ticks                                    15286026                       # Number of ticks simulated
final_tick                                   15286026                       # Number of ticks from beginning of simulation (restored from checkpoints and never reset)
sim_freq                                 1000000000000                       # Frequency of simulated ticks
host_inst_rate                                  21180                       # Simulator instruction rate (inst/s)
host_op_rate                                    22934                       # Simulator op (including micro ops) rate (op/s)
host_tick_rate                              449232376                       # Simulator tick rate (ticks/s)
host_mem_usage                                 787012                       # Number of bytes of host memory used
host_seconds                                     0.03                       # Real time elapsed on the host
sim_insts                                         720                       # Number of instructions simulated
sim_ops                                           780                       # Number of ops (including micro ops) simulated
system.voltage_domain.voltage                       1                       # Voltage in Volts
system.clk_domain.clock                          1000                       # Clock period in ticks
system.realview.nvmem.bytes_read::cpu0.inst          112                       # Number of bytes read from this memory
system.realview.nvmem.bytes_read::cpu1.inst          112                       # Number of bytes read from this memory
system.realview.nvmem.bytes_read::cpu2.inst          112                       # Number of bytes read from this memory
system.realview.nvmem.bytes_read::cpu3.inst          112                       # Number of bytes read from this memory
system.realview.nvmem.bytes_read::total           448                       # Number of bytes read from this memory
system.realview.nvmem.bytes_inst_read::cpu0.inst          112                       # Number of instructions bytes read from this memory
system.realview.nvmem.bytes_inst_read::cpu1.inst          112                       # Number of instructions bytes read from this memory
system.realview.nvmem.bytes_inst_read::cpu2.inst          112                       # Number of instructions bytes read from this memory
system.realview.nvmem.bytes_inst_read::cpu3.inst          112                       # Number of instructions bytes read from this memory
system.realview.nvmem.bytes_inst_read::total          448                       # Number of instructions bytes read from this memory
system.realview.nvmem.num_reads::cpu0.inst            7                       # Number of read requests responded to by this memory
system.realview.nvmem.num_reads::cpu1.inst            7                       # Number of read requests responded to by this memory
system.realview.nvmem.num_reads::cpu2.inst            7                       # Number of read requests responded to by this memory
system.realview.nvmem.num_reads::cpu3.inst            7                       # Number of read requests responded to by this memory
system.realview.nvmem.num_reads::total             28                       # Number of read requests responded to by this memory
system.realview.nvmem.bw_read::cpu0.inst      7326953                       # Total read bandwidth from this memory (bytes/s)
system.realview.nvmem.bw_read::cpu1.inst      7326953                       # Total read bandwidth from this memory (bytes/s)
system.realview.nvmem.bw_read::cpu2.inst      7326953                       # Total read bandwidth from this memory (bytes/s)
system.realview.nvmem.bw_read::cpu3.inst      7326953                       # Total read bandwidth from this memory (bytes/s)
system.realview.nvmem.bw_read::total         29307814                       # Total read bandwidth from this memory (bytes/s)
system.realview.nvmem.bw_inst_read::cpu0.inst      7326953                       # Instruction read bandwidth from this memory (bytes/s)
system.realview.nvmem.bw_inst_read::cpu1.inst      7326953                       # Instruction read bandwidth from this memory (bytes/s)
system.realview.nvmem.bw_inst_read::cpu2.inst      7326953                       # Instruction read bandwidth from this memory (bytes/s)
system.realview.nvmem.bw_inst_read::cpu3.inst      7326953                       # Instruction read bandwidth from this memory (bytes/s)
system.realview.nvmem.bw_inst_read::total     29307814                       # Instruction read bandwidth from this memory (bytes/s)
system.realview.nvmem.bw_total::cpu0.inst      7326953                       # Total bandwidth to/from this memory (bytes/s)
system.realview.nvmem.bw_total::cpu1.inst      7326953                       # Total bandwidth to/from this memory (bytes/s)
system.realview.nvmem.bw_total::cpu2.inst      7326953                       # Total bandwidth to/from this memory (bytes/s)
system.realview.nvmem.bw_total::cpu3.inst      7326953                       # Total bandwidth to/from this memory (bytes/s)
system.realview.nvmem.bw_total::total        29307814                       # Total bandwidth to/from this memory (bytes/s)
system.mem_ctrls.bytes_read::cpu0.inst           3984                       # Number of bytes read from this memory
system.mem_ctrls.bytes_read::cpu0.data            572                       # Number of bytes read from this memory
system.mem_ctrls.bytes_read::total               4556                       # Number of bytes read from this memory
system.mem_ctrls.bytes_inst_read::cpu0.inst         3984                       # Number of instructions bytes read from this memory
system.mem_ctrls.bytes_inst_read::total          3984                       # Number of instructions bytes read from this memory
system.mem_ctrls.bytes_written::cpu0.data          240                       # Number of bytes written to this memory
system.mem_ctrls.bytes_written::total             240                       # Number of bytes written to this memory
system.mem_ctrls.num_reads::cpu0.inst             249                       # Number of read requests responded to by this memory
system.mem_ctrls.num_reads::cpu0.data             137                       # Number of read requests responded to by this memory
system.mem_ctrls.num_reads::total                 386                       # Number of read requests responded to by this memory
system.mem_ctrls.num_writes::cpu0.data             60                       # Number of write requests responded to by this memory
system.mem_ctrls.num_writes::total                 60                       # Number of write requests responded to by this memory
system.mem_ctrls.bw_read::cpu0.inst         260630199                       # Total read bandwidth from this memory (bytes/s)
system.mem_ctrls.bw_read::cpu0.data          37419798                       # Total read bandwidth from this memory (bytes/s)
system.mem_ctrls.bw_read::total             298049997                       # Total read bandwidth from this memory (bytes/s)
system.mem_ctrls.bw_inst_read::cpu0.inst    260630199                       # Instruction read bandwidth from this memory (bytes/s)
system.mem_ctrls.bw_inst_read::total        260630199                       # Instruction read bandwidth from this memory (bytes/s)
system.mem_ctrls.bw_write::cpu0.data         15700614                       # Write bandwidth from this memory (bytes/s)
system.mem_ctrls.bw_write::total             15700614                       # Write bandwidth from this memory (bytes/s)
system.mem_ctrls.bw_total::cpu0.inst        260630199                       # Total bandwidth to/from this memory (bytes/s)
system.mem_ctrls.bw_total::cpu0.data         53120412                       # Total bandwidth to/from this memory (bytes/s)
system.mem_ctrls.bw_total::total            313750611                       # Total bandwidth to/from this memory (bytes/s)
system.mem_ctrls.readReqs                         386                       # Number of read requests accepted
system.mem_ctrls.writeReqs                         60                       # Number of write requests accepted
system.mem_ctrls.readBursts                       386                       # Number of DRAM read bursts, including those serviced by the write queue
system.mem_ctrls.writeBursts                       60                       # Number of DRAM write bursts, including those merged in the write queue
system.mem_ctrls.bytesReadDRAM                  24576                       # Total number of bytes read from DRAM
system.mem_ctrls.bytesReadWrQ                     128                       # Total number of bytes read from write queue
system.mem_ctrls.bytesWritten                    2048                       # Total number of bytes written to DRAM
system.mem_ctrls.bytesReadSys                    4556                       # Total read bytes from the system interface side
system.mem_ctrls.bytesWrittenSys                  240                       # Total written bytes from the system interface side
system.mem_ctrls.servicedByWrQ                      2                       # Number of DRAM read bursts serviced by the write queue
system.mem_ctrls.mergedWrBursts                     1                       # Number of DRAM write bursts merged with an existing one
system.mem_ctrls.neitherReadNorWriteReqs            0                       # Number of requests that are neither read nor write
system.mem_ctrls.perBankRdBursts::0                 1                       # Per bank write bursts
system.mem_ctrls.perBankRdBursts::1                58                       # Per bank write bursts
system.mem_ctrls.perBankRdBursts::2                 0                       # Per bank write bursts
system.mem_ctrls.perBankRdBursts::3                 0                       # Per bank write bursts
system.mem_ctrls.perBankRdBursts::4               256                       # Per bank write bursts
system.mem_ctrls.perBankRdBursts::5                 0                       # Per bank write bursts
system.mem_ctrls.perBankRdBursts::6                12                       # Per bank write bursts
system.mem_ctrls.perBankRdBursts::7                17                       # Per bank write bursts
system.mem_ctrls.perBankRdBursts::8                 4                       # Per bank write bursts
system.mem_ctrls.perBankRdBursts::9                 0                       # Per bank write bursts
system.mem_ctrls.perBankRdBursts::10                5                       # Per bank write bursts
system.mem_ctrls.perBankRdBursts::11                0                       # Per bank write bursts
system.mem_ctrls.perBankRdBursts::12                8                       # Per bank write bursts
system.mem_ctrls.perBankRdBursts::13                8                       # Per bank write bursts
system.mem_ctrls.perBankRdBursts::14                6                       # Per bank write bursts
system.mem_ctrls.perBankRdBursts::15                9                       # Per bank write bursts
system.mem_ctrls.perBankWrBursts::0                 0                       # Per bank write bursts
system.mem_ctrls.perBankWrBursts::1                 0                       # Per bank write bursts
system.mem_ctrls.perBankWrBursts::2                 0                       # Per bank write bursts
system.mem_ctrls.perBankWrBursts::3                 0                       # Per bank write bursts
system.mem_ctrls.perBankWrBursts::4                 0                       # Per bank write bursts
system.mem_ctrls.perBankWrBursts::5                 0                       # Per bank write bursts
system.mem_ctrls.perBankWrBursts::6                 0                       # Per bank write bursts
system.mem_ctrls.perBankWrBursts::7                14                       # Per bank write bursts
system.mem_ctrls.perBankWrBursts::8                 2                       # Per bank write bursts
system.mem_ctrls.perBankWrBursts::9                 0                       # Per bank write bursts
system.mem_ctrls.perBankWrBursts::10                5                       # Per bank write bursts
system.mem_ctrls.perBankWrBursts::11                0                       # Per bank write bursts
system.mem_ctrls.perBankWrBursts::12                0                       # Per bank write bursts
system.mem_ctrls.perBankWrBursts::13                8                       # Per bank write bursts
system.mem_ctrls.perBankWrBursts::14                3                       # Per bank write bursts
system.mem_ctrls.perBankWrBursts::15                0                       # Per bank write bursts
system.mem_ctrls.numRdRetry                         0                       # Number of times read queue was full causing retry
system.mem_ctrls.numWrRetry                         0                       # Number of times write queue was full causing retry
system.mem_ctrls.totGap                      15035412                       # Total gap between requests
system.mem_ctrls.readPktSize::0                     0                       # Read request sizes (log2)
system.mem_ctrls.readPktSize::1                     0                       # Read request sizes (log2)
system.mem_ctrls.readPktSize::2                   131                       # Read request sizes (log2)
system.mem_ctrls.readPktSize::3                     6                       # Read request sizes (log2)
system.mem_ctrls.readPktSize::4                   249                       # Read request sizes (log2)
system.mem_ctrls.readPktSize::5                     0                       # Read request sizes (log2)
system.mem_ctrls.readPktSize::6                     0                       # Read request sizes (log2)
system.mem_ctrls.writePktSize::0                    0                       # Write request sizes (log2)
system.mem_ctrls.writePktSize::1                    0                       # Write request sizes (log2)
system.mem_ctrls.writePktSize::2                   60                       # Write request sizes (log2)
system.mem_ctrls.writePktSize::3                    0                       # Write request sizes (log2)
system.mem_ctrls.writePktSize::4                    0                       # Write request sizes (log2)
system.mem_ctrls.writePktSize::5                    0                       # Write request sizes (log2)
system.mem_ctrls.writePktSize::6                    0                       # Write request sizes (log2)
system.mem_ctrls.rdQLenPdf::0                     228                       # What read queue length does an incoming req see
system.mem_ctrls.rdQLenPdf::1                     140                       # What read queue length does an incoming req see
system.mem_ctrls.rdQLenPdf::2                      16                       # What read queue length does an incoming req see
system.mem_ctrls.rdQLenPdf::3                       0                       # What read queue length does an incoming req see
system.mem_ctrls.rdQLenPdf::4                       0                       # What read queue length does an incoming req see
system.mem_ctrls.rdQLenPdf::5                       0                       # What read queue length does an incoming req see
system.mem_ctrls.rdQLenPdf::6                       0                       # What read queue length does an incoming req see
system.mem_ctrls.rdQLenPdf::7                       0                       # What read queue length does an incoming req see
system.mem_ctrls.rdQLenPdf::8                       0                       # What read queue length does an incoming req see
system.mem_ctrls.rdQLenPdf::9                       0                       # What read queue length does an incoming req see
system.mem_ctrls.rdQLenPdf::10                      0                       # What read queue length does an incoming req see
system.mem_ctrls.rdQLenPdf::11                      0                       # What read queue length does an incoming req see
system.mem_ctrls.rdQLenPdf::12                      0                       # What read queue length does an incoming req see
system.mem_ctrls.rdQLenPdf::13                      0                       # What read queue length does an incoming req see
system.mem_ctrls.rdQLenPdf::14                      0                       # What read queue length does an incoming req see
system.mem_ctrls.rdQLenPdf::15                      0                       # What read queue length does an incoming req see
system.mem_ctrls.rdQLenPdf::16                      0                       # What read queue length does an incoming req see
system.mem_ctrls.rdQLenPdf::17                      0                       # What read queue length does an incoming req see
system.mem_ctrls.rdQLenPdf::18                      0                       # What read queue length does an incoming req see
system.mem_ctrls.rdQLenPdf::19                      0                       # What read queue length does an incoming req see
system.mem_ctrls.rdQLenPdf::20                      0                       # What read queue length does an incoming req see
system.mem_ctrls.rdQLenPdf::21                      0                       # What read queue length does an incoming req see
system.mem_ctrls.rdQLenPdf::22                      0                       # What read queue length does an incoming req see
system.mem_ctrls.rdQLenPdf::23                      0                       # What read queue length does an incoming req see
system.mem_ctrls.rdQLenPdf::24                      0                       # What read queue length does an incoming req see
system.mem_ctrls.rdQLenPdf::25                      0                       # What read queue length does an incoming req see
system.mem_ctrls.rdQLenPdf::26                      0                       # What read queue length does an incoming req see
system.mem_ctrls.rdQLenPdf::27                      0                       # What read queue length does an incoming req see
system.mem_ctrls.rdQLenPdf::28                      0                       # What read queue length does an incoming req see
system.mem_ctrls.rdQLenPdf::29                      0                       # What read queue length does an incoming req see
system.mem_ctrls.rdQLenPdf::30                      0                       # What read queue length does an incoming req see
system.mem_ctrls.rdQLenPdf::31                      0                       # What read queue length does an incoming req see
system.mem_ctrls.wrQLenPdf::0                       1                       # What write queue length does an incoming req see
system.mem_ctrls.wrQLenPdf::1                       1                       # What write queue length does an incoming req see
system.mem_ctrls.wrQLenPdf::2                       1                       # What write queue length does an incoming req see
system.mem_ctrls.wrQLenPdf::3                       1                       # What write queue length does an incoming req see
system.mem_ctrls.wrQLenPdf::4                       1                       # What write queue length does an incoming req see
system.mem_ctrls.wrQLenPdf::5                       1                       # What write queue length does an incoming req see
system.mem_ctrls.wrQLenPdf::6                       1                       # What write queue length does an incoming req see
system.mem_ctrls.wrQLenPdf::7                       1                       # What write queue length does an incoming req see
system.mem_ctrls.wrQLenPdf::8                       1                       # What write queue length does an incoming req see
system.mem_ctrls.wrQLenPdf::9                       1                       # What write queue length does an incoming req see
system.mem_ctrls.wrQLenPdf::10                      1                       # What write queue length does an incoming req see
system.mem_ctrls.wrQLenPdf::11                      1                       # What write queue length does an incoming req see
system.mem_ctrls.wrQLenPdf::12                      1                       # What write queue length does an incoming req see
system.mem_ctrls.wrQLenPdf::13                      1                       # What write queue length does an incoming req see
system.mem_ctrls.wrQLenPdf::14                      1                       # What write queue length does an incoming req see
system.mem_ctrls.wrQLenPdf::15                      1                       # What write queue length does an incoming req see
system.mem_ctrls.wrQLenPdf::16                      1                       # What write queue length does an incoming req see
system.mem_ctrls.wrQLenPdf::17                      3                       # What write queue length does an incoming req see
system.mem_ctrls.wrQLenPdf::18                      3                       # What write queue length does an incoming req see
system.mem_ctrls.wrQLenPdf::19                      3                       # What write queue length does an incoming req see
system.mem_ctrls.wrQLenPdf::20                      3                       # What write queue length does an incoming req see
system.mem_ctrls.wrQLenPdf::21                      3                       # What write queue length does an incoming req see
system.mem_ctrls.wrQLenPdf::22                      3                       # What write queue length does an incoming req see
system.mem_ctrls.wrQLenPdf::23                      3                       # What write queue length does an incoming req see
system.mem_ctrls.wrQLenPdf::24                      3                       # What write queue length does an incoming req see
system.mem_ctrls.wrQLenPdf::25                      3                       # What write queue length does an incoming req see
system.mem_ctrls.wrQLenPdf::26                      3                       # What write queue length does an incoming req see
system.mem_ctrls.wrQLenPdf::27                      2                       # What write queue length does an incoming req see
system.mem_ctrls.wrQLenPdf::28                      2                       # What write queue length does an incoming req see
system.mem_ctrls.wrQLenPdf::29                      2                       # What write queue length does an incoming req see
system.mem_ctrls.wrQLenPdf::30                      2                       # What write queue length does an incoming req see
system.mem_ctrls.wrQLenPdf::31                      2                       # What write queue length does an incoming req see
system.mem_ctrls.wrQLenPdf::32                      2                       # What write queue length does an incoming req see
system.mem_ctrls.wrQLenPdf::33                      0                       # What write queue length does an incoming req see
system.mem_ctrls.wrQLenPdf::34                      0                       # What write queue length does an incoming req see
system.mem_ctrls.wrQLenPdf::35                      0                       # What write queue length does an incoming req see
system.mem_ctrls.wrQLenPdf::36                      0                       # What write queue length does an incoming req see
system.mem_ctrls.wrQLenPdf::37                      0                       # What write queue length does an incoming req see
system.mem_ctrls.wrQLenPdf::38                      0                       # What write queue length does an incoming req see
system.mem_ctrls.wrQLenPdf::39                      0                       # What write queue length does an incoming req see
system.mem_ctrls.wrQLenPdf::40                      0                       # What write queue length does an incoming req see
system.mem_ctrls.wrQLenPdf::41                      0                       # What write queue length does an incoming req see
system.mem_ctrls.wrQLenPdf::42                      0                       # What write queue length does an incoming req see
system.mem_ctrls.wrQLenPdf::43                      0                       # What write queue length does an incoming req see
system.mem_ctrls.wrQLenPdf::44                      0                       # What write queue length does an incoming req see
system.mem_ctrls.wrQLenPdf::45                      0                       # What write queue length does an incoming req see
system.mem_ctrls.wrQLenPdf::46                      0                       # What write queue length does an incoming req see
system.mem_ctrls.wrQLenPdf::47                      0                       # What write queue length does an incoming req see
system.mem_ctrls.wrQLenPdf::48                      0                       # What write queue length does an incoming req see
system.mem_ctrls.wrQLenPdf::49                      0                       # What write queue length does an incoming req see
system.mem_ctrls.wrQLenPdf::50                      0                       # What write queue length does an incoming req see
system.mem_ctrls.wrQLenPdf::51                      0                       # What write queue length does an incoming req see
system.mem_ctrls.wrQLenPdf::52                      0                       # What write queue length does an incoming req see
system.mem_ctrls.wrQLenPdf::53                      0                       # What write queue length does an incoming req see
system.mem_ctrls.wrQLenPdf::54                      0                       # What write queue length does an incoming req see
system.mem_ctrls.wrQLenPdf::55                      0                       # What write queue length does an incoming req see
system.mem_ctrls.wrQLenPdf::56                      0                       # What write queue length does an incoming req see
system.mem_ctrls.wrQLenPdf::57                      0                       # What write queue length does an incoming req see
system.mem_ctrls.wrQLenPdf::58                      0                       # What write queue length does an incoming req see
system.mem_ctrls.wrQLenPdf::59                      0                       # What write queue length does an incoming req see
system.mem_ctrls.wrQLenPdf::60                      0                       # What write queue length does an incoming req see
system.mem_ctrls.wrQLenPdf::61                      0                       # What write queue length does an incoming req see
system.mem_ctrls.wrQLenPdf::62                      0                       # What write queue length does an incoming req see
system.mem_ctrls.wrQLenPdf::63                      0                       # What write queue length does an incoming req see
system.mem_ctrls.bytesPerActivate::samples           34                       # Bytes accessed per row activation
system.mem_ctrls.bytesPerActivate::mean    687.058824                       # Bytes accessed per row activation
system.mem_ctrls.bytesPerActivate::gmean   494.841810                       # Bytes accessed per row activation
system.mem_ctrls.bytesPerActivate::stdev   396.815272                       # Bytes accessed per row activation
system.mem_ctrls.bytesPerActivate::0-127            5     14.71%     14.71% # Bytes accessed per row activation
system.mem_ctrls.bytesPerActivate::128-255            1      2.94%     17.65% # Bytes accessed per row activation
system.mem_ctrls.bytesPerActivate::256-383            5     14.71%     32.35% # Bytes accessed per row activation
system.mem_ctrls.bytesPerActivate::384-511            2      5.88%     38.24% # Bytes accessed per row activation
system.mem_ctrls.bytesPerActivate::512-639            1      2.94%     41.18% # Bytes accessed per row activation
system.mem_ctrls.bytesPerActivate::768-895            2      5.88%     47.06% # Bytes accessed per row activation
system.mem_ctrls.bytesPerActivate::1024-1151           18     52.94%    100.00% # Bytes accessed per row activation
system.mem_ctrls.bytesPerActivate::total           34                       # Bytes accessed per row activation
system.mem_ctrls.rdPerTurnAround::samples            2                       # Reads before turning the bus around for writes
system.mem_ctrls.rdPerTurnAround::mean            166                       # Reads before turning the bus around for writes
system.mem_ctrls.rdPerTurnAround::gmean    141.985915                       # Reads before turning the bus around for writes
system.mem_ctrls.rdPerTurnAround::stdev    121.622366                       # Reads before turning the bus around for writes
system.mem_ctrls.rdPerTurnAround::80-87             1     50.00%     50.00% # Reads before turning the bus around for writes
system.mem_ctrls.rdPerTurnAround::248-255            1     50.00%    100.00% # Reads before turning the bus around for writes
system.mem_ctrls.rdPerTurnAround::total             2                       # Reads before turning the bus around for writes
system.mem_ctrls.wrPerTurnAround::samples            2                       # Writes before turning the bus around for reads
system.mem_ctrls.wrPerTurnAround::mean             16                       # Writes before turning the bus around for reads
system.mem_ctrls.wrPerTurnAround::gmean     16.000000                       # Writes before turning the bus around for reads
system.mem_ctrls.wrPerTurnAround::16                2    100.00%    100.00% # Writes before turning the bus around for reads
system.mem_ctrls.wrPerTurnAround::total             2                       # Writes before turning the bus around for reads
system.mem_ctrls.totQLat                      1391762                       # Total ticks spent queuing
system.mem_ctrls.totMemAccLat                 8591762                       # Total ticks spent from burst creation until serviced by the DRAM
system.mem_ctrls.totBusLat                    1920000                       # Total ticks spent in databus transfers
system.mem_ctrls.avgQLat                      3624.38                       # Average queueing delay per DRAM burst
system.mem_ctrls.avgBusLat                    5000.00                       # Average bus latency per DRAM burst
system.mem_ctrls.avgMemAccLat                22374.38                       # Average memory access latency per DRAM burst
system.mem_ctrls.avgRdBW                      1607.74                       # Average DRAM read bandwidth in MiByte/s
system.mem_ctrls.avgWrBW                       133.98                       # Average achieved write bandwidth in MiByte/s
system.mem_ctrls.avgRdBWSys                    298.05                       # Average system read bandwidth in MiByte/s
system.mem_ctrls.avgWrBWSys                     15.70                       # Average system write bandwidth in MiByte/s
system.mem_ctrls.peakBW                      12800.00                       # Theoretical peak bandwidth in MiByte/s
system.mem_ctrls.busUtil                        13.61                       # Data bus utilization in percentage
system.mem_ctrls.busUtilRead                    12.56                       # Data bus utilization in percentage for reads
system.mem_ctrls.busUtilWrite                    1.05                       # Data bus utilization in percentage for writes
system.mem_ctrls.avgRdQLen                       1.59                       # Average read queue length when enqueuing
system.mem_ctrls.avgWrQLen                      16.03                       # Average write queue length when enqueuing
system.mem_ctrls.readRowHits                      345                       # Number of row buffer hits during reads
system.mem_ctrls.writeRowHits                      30                       # Number of row buffer hits during writes
system.mem_ctrls.readRowHitRate                 89.84                       # Row buffer hit rate for reads
system.mem_ctrls.writeRowHitRate                50.85                       # Row buffer hit rate for writes
system.mem_ctrls.avgGap                      33711.69                       # Average gap between requests
system.mem_ctrls.pageHitRate                    84.65                       # Row buffer hit rate, read and write combined
system.mem_ctrls.memoryStateTime::IDLE         207060                       # Time in different power states
system.mem_ctrls.memoryStateTime::REF          260000                       # Time in different power states
system.mem_ctrls.memoryStateTime::PRE_PDN            0                       # Time in different power states
system.mem_ctrls.memoryStateTime::ACT         7596790                       # Time in different power states
system.mem_ctrls.memoryStateTime::ACT_PDN            0                       # Time in different power states
system.membus.trans_dist::ReadReq                 414                       # Transaction distribution
system.membus.trans_dist::ReadResp                414                       # Transaction distribution
system.membus.trans_dist::WriteReq                 63                       # Transaction distribution
system.membus.trans_dist::WriteResp                63                       # Transaction distribution
system.membus.pkt_count_system.l2.mem_side::system.realview.nvmem.port           56                       # Packet count per connected master and slave (bytes)
system.membus.pkt_count_system.l2.mem_side::system.realview.gic.pio            6                       # Packet count per connected master and slave (bytes)
system.membus.pkt_count_system.l2.mem_side::system.mem_ctrls.port          892                       # Packet count per connected master and slave (bytes)
system.membus.pkt_count_system.l2.mem_side::total          954                       # Packet count per connected master and slave (bytes)
system.membus.pkt_count::total                    954                       # Packet count per connected master and slave (bytes)
system.membus.pkt_size_system.l2.mem_side::system.realview.nvmem.port          448                       # Cumulative packet size per connected master and slave (bytes)
system.membus.pkt_size_system.l2.mem_side::system.realview.gic.pio           12                       # Cumulative packet size per connected master and slave (bytes)
system.membus.pkt_size_system.l2.mem_side::system.mem_ctrls.port         4796                       # Cumulative packet size per connected master and slave (bytes)
system.membus.pkt_size_system.l2.mem_side::total         5256                       # Cumulative packet size per connected master and slave (bytes)
system.membus.pkt_size::total                    5256                       # Cumulative packet size per connected master and slave (bytes)
system.membus.snoops                                0                       # Total snoops (count)
system.membus.snoop_fanout::samples                 0                       # Request fanout histogram
system.membus.snoop_fanout::mean                  nan                       # Request fanout histogram
system.membus.snoop_fanout::stdev                 nan                       # Request fanout histogram
system.membus.snoop_fanout::underflows              0                       # Request fanout histogram
system.membus.snoop_fanout::0                       0                       # Request fanout histogram
system.membus.snoop_fanout::1                       0                       # Request fanout histogram
system.membus.snoop_fanout::2                       0                       # Request fanout histogram
system.membus.snoop_fanout::overflows               0                       # Request fanout histogram
system.membus.snoop_fanout::min_value               0                       # Request fanout histogram
system.membus.snoop_fanout::max_value               0                       # Request fanout histogram
system.membus.snoop_fanout::total                   0                       # Request fanout histogram
system.membus.reqLayer1.occupancy               41624                       # Layer occupancy (ticks)
system.membus.reqLayer1.utilization               0.3                       # Layer utilization (%)
system.membus.reqLayer2.occupancy                8624                       # Layer occupancy (ticks)
system.membus.reqLayer2.utilization               0.1                       # Layer utilization (%)
system.membus.reqLayer5.occupancy              728254                       # Layer occupancy (ticks)
system.membus.reqLayer5.utilization               4.8                       # Layer utilization (%)
system.membus.respLayer3.occupancy            1422016                       # Layer occupancy (ticks)
system.membus.respLayer3.utilization              9.3                       # Layer utilization (%)
system.cpu_voltage_domain.voltage                   1                       # Voltage in Volts
system.cpu_clk_domain.clock                       714                       # Clock period in ticks
system.cpu_clk_domain1.clock                      769                       # Clock period in ticks
system.cpu_clk_domain2.clock                      833                       # Clock period in ticks
system.cpu_clk_domain3.clock                      909                       # Clock period in ticks
system.realview.ethernet.descDMAReads               0                       # Number of descriptors the device read w/ DMA
system.realview.ethernet.descDMAWrites              0                       # Number of descriptors the device wrote w/ DMA
system.realview.ethernet.descDmaReadBytes            0                       # number of descriptor bytes read w/ DMA
system.realview.ethernet.descDmaWriteBytes            0                       # number of descriptor bytes write w/ DMA
system.realview.ethernet.postedSwi                  0                       # number of software interrupts posted to CPU
system.realview.ethernet.coalescedSwi             nan                       # average number of Swi's coalesced into each post
system.realview.ethernet.totalSwi                   0                       # total number of Swi written to ISR
system.realview.ethernet.postedRxIdle               0                       # number of rxIdle interrupts posted to CPU
system.realview.ethernet.coalescedRxIdle          nan                       # average number of RxIdle's coalesced into each post
system.realview.ethernet.totalRxIdle                0                       # total number of RxIdle written to ISR
system.realview.ethernet.postedRxOk                 0                       # number of RxOk interrupts posted to CPU
system.realview.ethernet.coalescedRxOk            nan                       # average number of RxOk's coalesced into each post
system.realview.ethernet.totalRxOk                  0                       # total number of RxOk written to ISR
system.realview.ethernet.postedRxDesc               0                       # number of RxDesc interrupts posted to CPU
system.realview.ethernet.coalescedRxDesc          nan                       # average number of RxDesc's coalesced into each post
system.realview.ethernet.totalRxDesc                0                       # total number of RxDesc written to ISR
system.realview.ethernet.postedTxOk                 0                       # number of TxOk interrupts posted to CPU
system.realview.ethernet.coalescedTxOk            nan                       # average number of TxOk's coalesced into each post
system.realview.ethernet.totalTxOk                  0                       # total number of TxOk written to ISR
system.realview.ethernet.postedTxIdle               0                       # number of TxIdle interrupts posted to CPU
system.realview.ethernet.coalescedTxIdle          nan                       # average number of TxIdle's coalesced into each post
system.realview.ethernet.totalTxIdle                0                       # total number of TxIdle written to ISR
system.realview.ethernet.postedTxDesc               0                       # number of TxDesc interrupts posted to CPU
system.realview.ethernet.coalescedTxDesc          nan                       # average number of TxDesc's coalesced into each post
system.realview.ethernet.totalTxDesc                0                       # total number of TxDesc written to ISR
system.realview.ethernet.postedRxOrn                0                       # number of RxOrn posted to CPU
system.realview.ethernet.coalescedRxOrn           nan                       # average number of RxOrn's coalesced into each post
system.realview.ethernet.totalRxOrn                 0                       # total number of RxOrn written to ISR
system.realview.ethernet.coalescedTotal           nan                       # average number of interrupts coalesced into each post
system.realview.ethernet.postedInterrupts            0                       # number of posts to CPU
system.realview.ethernet.droppedPackets             0                       # number of packets dropped
system.cf0.dma_read_full_pages                      0                       # Number of full page size DMA reads (not PRD).
system.cf0.dma_read_bytes                           0                       # Number of bytes transfered via DMA reads (not PRD).
system.cf0.dma_read_txs                             0                       # Number of DMA read transactions (not PRD).
system.cf0.dma_write_full_pages                     0                       # Number of full page size DMA writes.
system.cf0.dma_write_bytes                          0                       # Number of bytes transfered via DMA writes.
system.cf0.dma_write_txs                            0                       # Number of DMA write transactions.
system.cf2.dma_read_full_pages                      0                       # Number of full page size DMA reads (not PRD).
system.cf2.dma_read_bytes                           0                       # Number of bytes transfered via DMA reads (not PRD).
system.cf2.dma_read_txs                             0                       # Number of DMA read transactions (not PRD).
system.cf2.dma_write_full_pages                     0                       # Number of full page size DMA writes.
system.cf2.dma_write_bytes                          0                       # Number of bytes transfered via DMA writes.
system.cf2.dma_write_txs                            0                       # Number of DMA write transactions.
system.iocache.tags.replacements                    0                       # number of replacements
system.iocache.tags.tagsinuse                       0                       # Cycle average of tags in use
system.iocache.tags.total_refs                      0                       # Total number of references to valid blocks.
system.iocache.tags.sampled_refs                    0                       # Sample count of references to valid blocks.
system.iocache.tags.avg_refs                      nan                       # Average number of references to valid blocks.
system.iocache.tags.warmup_cycle                    0                       # Cycle when the warmup percentage was hit.
system.iocache.tags.tag_accesses                    0                       # Number of tag accesses
system.iocache.tags.data_accesses                   0                       # Number of data accesses
system.iocache.blocked_cycles::no_mshrs             0                       # number of cycles access was blocked
system.iocache.blocked_cycles::no_targets            0                       # number of cycles access was blocked
system.iocache.blocked::no_mshrs                    0                       # number of cycles access was blocked
system.iocache.blocked::no_targets                  0                       # number of cycles access was blocked
system.iocache.avg_blocked_cycles::no_mshrs          nan                       # average number of cycles each access was blocked
system.iocache.avg_blocked_cycles::no_targets          nan                       # average number of cycles each access was blocked
system.iocache.fast_writes                          0                       # number of fast writes performed
system.iocache.cache_copies                         0                       # number of cache copies performed
system.iocache.no_allocate_misses                   0                       # Number of misses that were no-allocate
system.tol2bus.trans_dist::ReadReq                414                       # Transaction distribution
system.tol2bus.trans_dist::ReadResp               413                       # Transaction distribution
system.tol2bus.trans_dist::WriteReq                63                       # Transaction distribution
system.tol2bus.trans_dist::WriteResp               63                       # Transaction distribution
system.tol2bus.pkt_count_system.cpu0.icache.mem_side::system.l2.cpu_side          512                       # Packet count per connected master and slave (bytes)
system.tol2bus.pkt_count_system.cpu0.dcache.mem_side::system.l2.cpu_side          393                       # Packet count per connected master and slave (bytes)
system.tol2bus.pkt_count_system.cpu1.icache.mem_side::system.l2.cpu_side           14                       # Packet count per connected master and slave (bytes)
system.tol2bus.pkt_count_system.cpu1.dcache.mem_side::system.l2.cpu_side            2                       # Packet count per connected master and slave (bytes)
system.tol2bus.pkt_count_system.cpu2.icache.mem_side::system.l2.cpu_side           14                       # Packet count per connected master and slave (bytes)
system.tol2bus.pkt_count_system.cpu2.dcache.mem_side::system.l2.cpu_side            2                       # Packet count per connected master and slave (bytes)
system.tol2bus.pkt_count_system.cpu3.icache.mem_side::system.l2.cpu_side           14                       # Packet count per connected master and slave (bytes)
system.tol2bus.pkt_count_system.cpu3.dcache.mem_side::system.l2.cpu_side            2                       # Packet count per connected master and slave (bytes)
system.tol2bus.pkt_count::total                   953                       # Packet count per connected master and slave (bytes)
system.tol2bus.pkt_size_system.cpu0.icache.mem_side::system.l2.cpu_side         4096                       # Cumulative packet size per connected master and slave (bytes)
system.tol2bus.pkt_size_system.cpu0.dcache.mem_side::system.l2.cpu_side          808                       # Cumulative packet size per connected master and slave (bytes)
system.tol2bus.pkt_size_system.cpu1.icache.mem_side::system.l2.cpu_side          112                       # Cumulative packet size per connected master and slave (bytes)
system.tol2bus.pkt_size_system.cpu1.dcache.mem_side::system.l2.cpu_side            4                       # Cumulative packet size per connected master and slave (bytes)
system.tol2bus.pkt_size_system.cpu2.icache.mem_side::system.l2.cpu_side          112                       # Cumulative packet size per connected master and slave (bytes)
system.tol2bus.pkt_size_system.cpu2.dcache.mem_side::system.l2.cpu_side            4                       # Cumulative packet size per connected master and slave (bytes)
system.tol2bus.pkt_size_system.cpu3.icache.mem_side::system.l2.cpu_side          112                       # Cumulative packet size per connected master and slave (bytes)
system.tol2bus.pkt_size_system.cpu3.dcache.mem_side::system.l2.cpu_side            4                       # Cumulative packet size per connected master and slave (bytes)
system.tol2bus.pkt_size::total                   5252                       # Cumulative packet size per connected master and slave (bytes)
system.tol2bus.snoops                               0                       # Total snoops (count)
system.tol2bus.snoop_fanout::samples                0                       # Request fanout histogram
system.tol2bus.snoop_fanout::mean                 nan                       # Request fanout histogram
system.tol2bus.snoop_fanout::stdev                nan                       # Request fanout histogram
system.tol2bus.snoop_fanout::underflows             0                       # Request fanout histogram
system.tol2bus.snoop_fanout::0                      0                       # Request fanout histogram
system.tol2bus.snoop_fanout::1                      0                       # Request fanout histogram
system.tol2bus.snoop_fanout::2                      0                       # Request fanout histogram
system.tol2bus.snoop_fanout::3                      0                       # Request fanout histogram
system.tol2bus.snoop_fanout::4                      0                       # Request fanout histogram
system.tol2bus.snoop_fanout::5                      0                       # Request fanout histogram
system.tol2bus.snoop_fanout::6                      0                       # Request fanout histogram
system.tol2bus.snoop_fanout::7                      0                       # Request fanout histogram
system.tol2bus.snoop_fanout::8                      0                       # Request fanout histogram
system.tol2bus.snoop_fanout::9                      0                       # Request fanout histogram
system.tol2bus.snoop_fanout::10                     0                       # Request fanout histogram
system.tol2bus.snoop_fanout::11                     0                       # Request fanout histogram
system.tol2bus.snoop_fanout::12                     0                       # Request fanout histogram
system.tol2bus.snoop_fanout::13                     0                       # Request fanout histogram
system.tol2bus.snoop_fanout::14                     0                       # Request fanout histogram
system.tol2bus.snoop_fanout::15                     0                       # Request fanout histogram
system.tol2bus.snoop_fanout::16                     0                       # Request fanout histogram
system.tol2bus.snoop_fanout::17                     0                       # Request fanout histogram
system.tol2bus.snoop_fanout::18                     0                       # Request fanout histogram
system.tol2bus.snoop_fanout::19                     0                       # Request fanout histogram
system.tol2bus.snoop_fanout::20                     0                       # Request fanout histogram
system.tol2bus.snoop_fanout::21                     0                       # Request fanout histogram
system.tol2bus.snoop_fanout::22                     0                       # Request fanout histogram
system.tol2bus.snoop_fanout::23                     0                       # Request fanout histogram
system.tol2bus.snoop_fanout::24                     0                       # Request fanout histogram
system.tol2bus.snoop_fanout::overflows              0                       # Request fanout histogram
system.tol2bus.snoop_fanout::min_value              0                       # Request fanout histogram
system.tol2bus.snoop_fanout::max_value              0                       # Request fanout histogram
system.tol2bus.snoop_fanout::total                  0                       # Request fanout histogram
system.tol2bus.reqLayer0.occupancy             391397                       # Layer occupancy (ticks)
system.tol2bus.reqLayer0.utilization              2.6                       # Layer utilization (%)
system.tol2bus.respLayer0.occupancy            473888                       # Layer occupancy (ticks)
system.tol2bus.respLayer0.utilization             3.1                       # Layer utilization (%)
system.tol2bus.respLayer1.occupancy            303854                       # Layer occupancy (ticks)
system.tol2bus.respLayer1.utilization             2.0                       # Layer utilization (%)
system.tol2bus.respLayer6.occupancy             13810                       # Layer occupancy (ticks)
system.tol2bus.respLayer6.utilization             0.1                       # Layer utilization (%)
system.tol2bus.respLayer7.occupancy              1032                       # Layer occupancy (ticks)
system.tol2bus.respLayer7.utilization             0.0                       # Layer utilization (%)
system.tol2bus.respLayer12.occupancy            13900                       # Layer occupancy (ticks)
system.tol2bus.respLayer12.utilization            0.1                       # Layer utilization (%)
system.tol2bus.respLayer13.occupancy              886                       # Layer occupancy (ticks)
system.tol2bus.respLayer13.utilization            0.0                       # Layer utilization (%)
system.tol2bus.respLayer18.occupancy            13612                       # Layer occupancy (ticks)
system.tol2bus.respLayer18.utilization            0.1                       # Layer utilization (%)
system.tol2bus.respLayer19.occupancy             1026                       # Layer occupancy (ticks)
system.tol2bus.respLayer19.utilization            0.0                       # Layer utilization (%)
system.l2.prefetcher.prefetcher.num_hwpf_identified            0                       # number of hwpf identified
system.l2.prefetcher.prefetcher.num_hwpf_already_in_mshr            0                       # number of hwpf that were already in mshr
system.l2.prefetcher.prefetcher.num_hwpf_already_in_cache            0                       # number of hwpf that were already in the cache
system.l2.prefetcher.prefetcher.num_hwpf_already_in_prefetcher            0                       # number of hwpf that were already in the prefetch queue
system.l2.prefetcher.prefetcher.num_hwpf_evicted            0                       # number of hwpf removed due to no buffer left
system.l2.prefetcher.prefetcher.num_hwpf_removed_MSHR_hit            0                       # number of hwpf removed because MSHR allocated
system.l2.prefetcher.prefetcher.num_hwpf_issued            0                       # number of hwpf issued
system.l2.prefetcher.prefetcher.num_hwpf_span_page            0                       # number of hwpf spanning a virtual page
system.l2.prefetcher.prefetcher.num_hwpf_squashed_from_miss            0                       # number of hwpf that got squashed due to a miss aborting calculation time
system.l2.tags.replacements                         0                       # number of replacements
system.l2.tags.tagsinuse                            0                       # Cycle average of tags in use
system.l2.tags.total_refs                           0                       # Total number of references to valid blocks.
system.l2.tags.sampled_refs                         0                       # Sample count of references to valid blocks.
system.l2.tags.avg_refs                           nan                       # Average number of references to valid blocks.
system.l2.tags.warmup_cycle                         0                       # Cycle when the warmup percentage was hit.
system.l2.tags.tag_accesses                         0                       # Number of tag accesses
system.l2.tags.data_accesses                        0                       # Number of data accesses
system.l2.blocked_cycles::no_mshrs                  0                       # number of cycles access was blocked
system.l2.blocked_cycles::no_targets                0                       # number of cycles access was blocked
system.l2.blocked::no_mshrs                         0                       # number of cycles access was blocked
system.l2.blocked::no_targets                       0                       # number of cycles access was blocked
system.l2.avg_blocked_cycles::no_mshrs            nan                       # average number of cycles each access was blocked
system.l2.avg_blocked_cycles::no_targets          nan                       # average number of cycles each access was blocked
system.l2.fast_writes                               0                       # number of fast writes performed
system.l2.cache_copies                              0                       # number of cache copies performed
system.l2.ReadReq_mshr_uncacheable_latency::cpu0.inst     12755122                       # number of ReadReq MSHR uncacheable cycles
system.l2.ReadReq_mshr_uncacheable_latency::cpu0.data      7127264                       # number of ReadReq MSHR uncacheable cycles
system.l2.ReadReq_mshr_uncacheable_latency::cpu1.inst       292408                       # number of ReadReq MSHR uncacheable cycles
system.l2.ReadReq_mshr_uncacheable_latency::cpu2.inst       304537                       # number of ReadReq MSHR uncacheable cycles
system.l2.ReadReq_mshr_uncacheable_latency::cpu3.inst       311599                       # number of ReadReq MSHR uncacheable cycles
system.l2.ReadReq_mshr_uncacheable_latency::total     20790930                       # number of ReadReq MSHR uncacheable cycles
system.l2.WriteReq_mshr_uncacheable_latency::cpu0.data      1120286                       # number of WriteReq MSHR uncacheable cycles
system.l2.WriteReq_mshr_uncacheable_latency::cpu1.data        18871                       # number of WriteReq MSHR uncacheable cycles
system.l2.WriteReq_mshr_uncacheable_latency::cpu2.data        18806                       # number of WriteReq MSHR uncacheable cycles
system.l2.WriteReq_mshr_uncacheable_latency::cpu3.data        19198                       # number of WriteReq MSHR uncacheable cycles
system.l2.WriteReq_mshr_uncacheable_latency::total      1177161                       # number of WriteReq MSHR uncacheable cycles
system.l2.overall_mshr_uncacheable_latency::cpu0.inst     12755122                       # number of overall MSHR uncacheable cycles
system.l2.overall_mshr_uncacheable_latency::cpu0.data      8247550                       # number of overall MSHR uncacheable cycles
system.l2.overall_mshr_uncacheable_latency::cpu1.inst       292408                       # number of overall MSHR uncacheable cycles
system.l2.overall_mshr_uncacheable_latency::cpu1.data        18871                       # number of overall MSHR uncacheable cycles
system.l2.overall_mshr_uncacheable_latency::cpu2.inst       304537                       # number of overall MSHR uncacheable cycles
system.l2.overall_mshr_uncacheable_latency::cpu2.data        18806                       # number of overall MSHR uncacheable cycles
system.l2.overall_mshr_uncacheable_latency::cpu3.inst       311599                       # number of overall MSHR uncacheable cycles
system.l2.overall_mshr_uncacheable_latency::cpu3.data        19198                       # number of overall MSHR uncacheable cycles
system.l2.overall_mshr_uncacheable_latency::total     21968091                       # number of overall MSHR uncacheable cycles
system.l2.ReadReq_avg_mshr_uncacheable_latency::cpu0.inst          inf                       # average ReadReq mshr uncacheable latency
system.l2.ReadReq_avg_mshr_uncacheable_latency::cpu0.data          inf                       # average ReadReq mshr uncacheable latency
system.l2.ReadReq_avg_mshr_uncacheable_latency::cpu1.inst          inf                       # average ReadReq mshr uncacheable latency
system.l2.ReadReq_avg_mshr_uncacheable_latency::cpu2.inst          inf                       # average ReadReq mshr uncacheable latency
system.l2.ReadReq_avg_mshr_uncacheable_latency::cpu3.inst          inf                       # average ReadReq mshr uncacheable latency
system.l2.ReadReq_avg_mshr_uncacheable_latency::total          inf                       # average ReadReq mshr uncacheable latency
system.l2.WriteReq_avg_mshr_uncacheable_latency::cpu0.data          inf                       # average WriteReq mshr uncacheable latency
system.l2.WriteReq_avg_mshr_uncacheable_latency::cpu1.data          inf                       # average WriteReq mshr uncacheable latency
system.l2.WriteReq_avg_mshr_uncacheable_latency::cpu2.data          inf                       # average WriteReq mshr uncacheable latency
system.l2.WriteReq_avg_mshr_uncacheable_latency::cpu3.data          inf                       # average WriteReq mshr uncacheable latency
system.l2.WriteReq_avg_mshr_uncacheable_latency::total          inf                       # average WriteReq mshr uncacheable latency
system.l2.overall_avg_mshr_uncacheable_latency::cpu0.inst          inf                       # average overall mshr uncacheable latency
system.l2.overall_avg_mshr_uncacheable_latency::cpu0.data          inf                       # average overall mshr uncacheable latency
system.l2.overall_avg_mshr_uncacheable_latency::cpu1.inst          inf                       # average overall mshr uncacheable latency
system.l2.overall_avg_mshr_uncacheable_latency::cpu1.data          inf                       # average overall mshr uncacheable latency
system.l2.overall_avg_mshr_uncacheable_latency::cpu2.inst          inf                       # average overall mshr uncacheable latency
system.l2.overall_avg_mshr_uncacheable_latency::cpu2.data          inf                       # average overall mshr uncacheable latency
system.l2.overall_avg_mshr_uncacheable_latency::cpu3.inst          inf                       # average overall mshr uncacheable latency
system.l2.overall_avg_mshr_uncacheable_latency::cpu3.data          inf                       # average overall mshr uncacheable latency
system.l2.overall_avg_mshr_uncacheable_latency::total          inf                       # average overall mshr uncacheable latency
system.l2.no_allocate_misses                        0                       # Number of misses that were no-allocate
system.cpu0.branchPred.lookups                    114                       # Number of BP lookups
system.cpu0.branchPred.condPredicted               80                       # Number of conditional branches predicted
system.cpu0.branchPred.condIncorrect               33                       # Number of conditional branches incorrect
system.cpu0.branchPred.BTBLookups                  60                       # Number of BTB lookups
system.cpu0.branchPred.BTBHits                     45                       # Number of BTB hits
system.cpu0.branchPred.BTBCorrect                   0                       # Number of correct BTB predictions (this stat may not work properly.
system.cpu0.branchPred.BTBHitPct            75.000000                       # BTB Hit Percentage
system.cpu0.branchPred.usedRAS                     19                       # Number of times the RAS was used to get a target.
system.cpu0.branchPred.RASInCorrect                 0                       # Number of incorrect RAS predictions.
system.cpu0.dstage2_mmu.stage2_tlb.inst_hits            0                       # ITB inst hits
system.cpu0.dstage2_mmu.stage2_tlb.inst_misses            0                       # ITB inst misses
system.cpu0.dstage2_mmu.stage2_tlb.read_hits            0                       # DTB read hits
system.cpu0.dstage2_mmu.stage2_tlb.read_misses            0                       # DTB read misses
system.cpu0.dstage2_mmu.stage2_tlb.write_hits            0                       # DTB write hits
system.cpu0.dstage2_mmu.stage2_tlb.write_misses            0                       # DTB write misses
system.cpu0.dstage2_mmu.stage2_tlb.flush_tlb            0                       # Number of times complete TLB was flushed
system.cpu0.dstage2_mmu.stage2_tlb.flush_tlb_mva            0                       # Number of times TLB was flushed by MVA
system.cpu0.dstage2_mmu.stage2_tlb.flush_tlb_mva_asid            0                       # Number of times TLB was flushed by MVA & ASID
system.cpu0.dstage2_mmu.stage2_tlb.flush_tlb_asid            0                       # Number of times TLB was flushed by ASID
system.cpu0.dstage2_mmu.stage2_tlb.flush_entries            0                       # Number of entries that have been flushed from TLB
system.cpu0.dstage2_mmu.stage2_tlb.align_faults            0                       # Number of TLB faults due to alignment restrictions
system.cpu0.dstage2_mmu.stage2_tlb.prefetch_faults            0                       # Number of TLB faults due to prefetch
system.cpu0.dstage2_mmu.stage2_tlb.domain_faults            0                       # Number of TLB faults due to domain restrictions
system.cpu0.dstage2_mmu.stage2_tlb.perms_faults            0                       # Number of TLB faults due to permissions restrictions
system.cpu0.dstage2_mmu.stage2_tlb.read_accesses            0                       # DTB read accesses
system.cpu0.dstage2_mmu.stage2_tlb.write_accesses            0                       # DTB write accesses
system.cpu0.dstage2_mmu.stage2_tlb.inst_accesses            0                       # ITB inst accesses
system.cpu0.dstage2_mmu.stage2_tlb.hits             0                       # DTB hits
system.cpu0.dstage2_mmu.stage2_tlb.misses            0                       # DTB misses
system.cpu0.dstage2_mmu.stage2_tlb.accesses            0                       # DTB accesses
system.cpu0.dtb.inst_hits                           0                       # ITB inst hits
system.cpu0.dtb.inst_misses                         0                       # ITB inst misses
system.cpu0.dtb.read_hits                           0                       # DTB read hits
system.cpu0.dtb.read_misses                         0                       # DTB read misses
system.cpu0.dtb.write_hits                          0                       # DTB write hits
system.cpu0.dtb.write_misses                        0                       # DTB write misses
system.cpu0.dtb.flush_tlb                           0                       # Number of times complete TLB was flushed
system.cpu0.dtb.flush_tlb_mva                       0                       # Number of times TLB was flushed by MVA
system.cpu0.dtb.flush_tlb_mva_asid                  0                       # Number of times TLB was flushed by MVA & ASID
system.cpu0.dtb.flush_tlb_asid                      0                       # Number of times TLB was flushed by ASID
system.cpu0.dtb.flush_entries                       0                       # Number of entries that have been flushed from TLB
system.cpu0.dtb.align_faults                        0                       # Number of TLB faults due to alignment restrictions
system.cpu0.dtb.prefetch_faults                     0                       # Number of TLB faults due to prefetch
system.cpu0.dtb.domain_faults                       0                       # Number of TLB faults due to domain restrictions
system.cpu0.dtb.perms_faults                        0                       # Number of TLB faults due to permissions restrictions
system.cpu0.dtb.read_accesses                       0                       # DTB read accesses
system.cpu0.dtb.write_accesses                      0                       # DTB write accesses
system.cpu0.dtb.inst_accesses                       0                       # ITB inst accesses
system.cpu0.dtb.hits                                0                       # DTB hits
system.cpu0.dtb.misses                              0                       # DTB misses
system.cpu0.dtb.accesses                            0                       # DTB accesses
system.cpu0.istage2_mmu.stage2_tlb.inst_hits            0                       # ITB inst hits
system.cpu0.istage2_mmu.stage2_tlb.inst_misses            0                       # ITB inst misses
system.cpu0.istage2_mmu.stage2_tlb.read_hits            0                       # DTB read hits
system.cpu0.istage2_mmu.stage2_tlb.read_misses            0                       # DTB read misses
system.cpu0.istage2_mmu.stage2_tlb.write_hits            0                       # DTB write hits
system.cpu0.istage2_mmu.stage2_tlb.write_misses            0                       # DTB write misses
system.cpu0.istage2_mmu.stage2_tlb.flush_tlb            0                       # Number of times complete TLB was flushed
system.cpu0.istage2_mmu.stage2_tlb.flush_tlb_mva            0                       # Number of times TLB was flushed by MVA
system.cpu0.istage2_mmu.stage2_tlb.flush_tlb_mva_asid            0                       # Number of times TLB was flushed by MVA & ASID
system.cpu0.istage2_mmu.stage2_tlb.flush_tlb_asid            0                       # Number of times TLB was flushed by ASID
system.cpu0.istage2_mmu.stage2_tlb.flush_entries            0                       # Number of entries that have been flushed from TLB
system.cpu0.istage2_mmu.stage2_tlb.align_faults            0                       # Number of TLB faults due to alignment restrictions
system.cpu0.istage2_mmu.stage2_tlb.prefetch_faults            0                       # Number of TLB faults due to prefetch
system.cpu0.istage2_mmu.stage2_tlb.domain_faults            0                       # Number of TLB faults due to domain restrictions
system.cpu0.istage2_mmu.stage2_tlb.perms_faults            0                       # Number of TLB faults due to permissions restrictions
system.cpu0.istage2_mmu.stage2_tlb.read_accesses            0                       # DTB read accesses
system.cpu0.istage2_mmu.stage2_tlb.write_accesses            0                       # DTB write accesses
system.cpu0.istage2_mmu.stage2_tlb.inst_accesses            0                       # ITB inst accesses
system.cpu0.istage2_mmu.stage2_tlb.hits             0                       # DTB hits
system.cpu0.istage2_mmu.stage2_tlb.misses            0                       # DTB misses
system.cpu0.istage2_mmu.stage2_tlb.accesses            0                       # DTB accesses
system.cpu0.itb.inst_hits                           0                       # ITB inst hits
system.cpu0.itb.inst_misses                         0                       # ITB inst misses
system.cpu0.itb.read_hits                           0                       # DTB read hits
system.cpu0.itb.read_misses                         0                       # DTB read misses
system.cpu0.itb.write_hits                          0                       # DTB write hits
system.cpu0.itb.write_misses                        0                       # DTB write misses
system.cpu0.itb.flush_tlb                           0                       # Number of times complete TLB was flushed
system.cpu0.itb.flush_tlb_mva                       0                       # Number of times TLB was flushed by MVA
system.cpu0.itb.flush_tlb_mva_asid                  0                       # Number of times TLB was flushed by MVA & ASID
system.cpu0.itb.flush_tlb_asid                      0                       # Number of times TLB was flushed by ASID
system.cpu0.itb.flush_entries                       0                       # Number of entries that have been flushed from TLB
system.cpu0.itb.align_faults                        0                       # Number of TLB faults due to alignment restrictions
system.cpu0.itb.prefetch_faults                     0                       # Number of TLB faults due to prefetch
system.cpu0.itb.domain_faults                       0                       # Number of TLB faults due to domain restrictions
system.cpu0.itb.perms_faults                        0                       # Number of TLB faults due to permissions restrictions
system.cpu0.itb.read_accesses                       0                       # DTB read accesses
system.cpu0.itb.write_accesses                      0                       # DTB write accesses
system.cpu0.itb.inst_accesses                       0                       # ITB inst accesses
system.cpu0.itb.hits                                0                       # DTB hits
system.cpu0.itb.misses                              0                       # DTB misses
system.cpu0.itb.accesses                            0                       # DTB accesses
system.cpu0.numCycles                           21410                       # number of cpu cycles simulated
system.cpu0.numWorkItemsStarted                     0                       # number of work items this cpu started
system.cpu0.numWorkItemsCompleted                   0                       # number of work items this cpu completed
system.cpu0.fetch.icacheStallCycles              7034                       # Number of cycles fetch is stalled on an Icache miss
system.cpu0.fetch.Insts                           748                       # Number of instructions fetch has processed
system.cpu0.fetch.Branches                        114                       # Number of branches that fetch encountered
system.cpu0.fetch.predictedBranches                64                       # Number of branches that fetch has predicted taken
system.cpu0.fetch.Cycles                          384                       # Number of cycles fetch has run and was not squashing or blocked
system.cpu0.fetch.SquashCycles                     68                       # Number of cycles fetch has spent squashing
system.cpu0.fetch.MiscStallCycles                   1                       # Number of cycles fetch has spent waiting on interrupts, or bad addresses, or out of MSHRs
system.cpu0.fetch.IcacheWaitRetryStallCycles           11                       # Number of stall cycles due to full MSHR
system.cpu0.fetch.CacheLines                      256                       # Number of cache lines fetched
system.cpu0.fetch.IcacheSquashes                   34                       # Number of outstanding Icache misses that were squashed
system.cpu0.fetch.rateDist::samples              7464                       # Number of instructions fetched each cycle (Total)
system.cpu0.fetch.rateDist::mean             0.108521                       # Number of instructions fetched each cycle (Total)
system.cpu0.fetch.rateDist::stdev            0.517430                       # Number of instructions fetched each cycle (Total)
system.cpu0.fetch.rateDist::underflows              0      0.00%      0.00% # Number of instructions fetched each cycle (Total)
system.cpu0.fetch.rateDist::0                    7080     94.86%     94.86% # Number of instructions fetched each cycle (Total)
system.cpu0.fetch.rateDist::1                     170      2.28%     97.13% # Number of instructions fetched each cycle (Total)
system.cpu0.fetch.rateDist::2                       2      0.03%     97.16% # Number of instructions fetched each cycle (Total)
system.cpu0.fetch.rateDist::3                     212      2.84%    100.00% # Number of instructions fetched each cycle (Total)
system.cpu0.fetch.rateDist::overflows               0      0.00%    100.00% # Number of instructions fetched each cycle (Total)
system.cpu0.fetch.rateDist::min_value               0                       # Number of instructions fetched each cycle (Total)
system.cpu0.fetch.rateDist::max_value               3                       # Number of instructions fetched each cycle (Total)
system.cpu0.fetch.rateDist::total                7464                       # Number of instructions fetched each cycle (Total)
system.cpu0.fetch.branchRate                 0.005325                       # Number of branch fetches per cycle
system.cpu0.fetch.rate                       0.034937                       # Number of inst fetches per cycle
system.cpu0.decode.IdleCycles                    6980                       # Number of cycles decode is idle
system.cpu0.decode.BlockedCycles                   75                       # Number of cycles decode is blocked
system.cpu0.decode.RunCycles                      383                       # Number of cycles decode is running
system.cpu0.decode.SquashCycles                    26                       # Number of cycles decode is squashing
system.cpu0.decode.BranchResolved                   8                       # Number of times decode resolved a branch
system.cpu0.decode.BranchMispred                    8                       # Number of times decode detected a branch misprediction
system.cpu0.decode.DecodedInsts                   795                       # Number of instructions handled by decode
system.cpu0.decode.SquashedInsts                    6                       # Number of squashed instructions handled by decode
system.cpu0.rename.SquashCycles                    26                       # Number of cycles rename is squashing
system.cpu0.rename.IdleCycles                    6987                       # Number of cycles rename is idle
system.cpu0.rename.serializeStallCycles            70                       # count of cycles rename stalled for serializing inst
system.cpu0.rename.RunCycles                      376                       # Number of cycles rename is running
system.cpu0.rename.UnblockCycles                    5                       # Number of cycles rename is unblocking
system.cpu0.rename.RenamedInsts                   795                       # Number of instructions processed by rename
system.cpu0.rename.RenamedOperands                880                       # Number of destination operands rename has renamed
system.cpu0.rename.RenameLookups                 3987                       # Number of register rename lookups that rename has made
system.cpu0.rename.int_rename_lookups            1372                       # Number of integer rename lookups
system.cpu0.rename.CommittedMaps                  841                       # Number of HB maps that are committed
system.cpu0.rename.UndoneMaps                      37                       # Number of HB maps that are undone due to squashing
system.cpu0.rename.serializingInsts                 4                       # count of serializing insts renamed
system.cpu0.rename.tempSerializingInsts             1                       # count of temporary serializing insts renamed
system.cpu0.rename.skidInsts                        8                       # count of insts added to the skid buffer
system.cpu0.memDep0.insertedLoads                 136                       # Number of loads inserted to the mem dependence unit.
system.cpu0.memDep0.insertedStores                 62                       # Number of stores inserted to the mem dependence unit.
system.cpu0.memDep0.conflictingLoads                0                       # Number of conflicting loads.
system.cpu0.memDep0.conflictingStores               0                       # Number of conflicting stores.
system.cpu0.iq.iqInstsAdded                       793                       # Number of instructions added to the IQ (excludes non-spec)
system.cpu0.iq.iqNonSpecInstsAdded                  2                       # Number of non-speculative instructions added to the IQ
system.cpu0.iq.iqInstsIssued                      934                       # Number of instructions issued
system.cpu0.iq.iqSquashedInstsExamined             19                       # Number of squashed instructions iterated over during squash; mainly for profiling
system.cpu0.iq.iqSquashedOperandsExamined           15                       # Number of squashed operands that are examined and possibly removed from graph
system.cpu0.iq.iqSquashedNonSpecRemoved             1                       # Number of squashed non-spec instructions that were removed
system.cpu0.iq.issued_per_cycle::samples         7464                       # Number of insts issued each cycle
system.cpu0.iq.issued_per_cycle::mean        0.125134                       # Number of insts issued each cycle
system.cpu0.iq.issued_per_cycle::stdev       0.405827                       # Number of insts issued each cycle
system.cpu0.iq.issued_per_cycle::underflows            0      0.00%      0.00% # Number of insts issued each cycle
system.cpu0.iq.issued_per_cycle::0               6678     89.47%     89.47% # Number of insts issued each cycle
system.cpu0.iq.issued_per_cycle::1                696      9.32%     98.79% # Number of insts issued each cycle
system.cpu0.iq.issued_per_cycle::2                 32      0.43%     99.22% # Number of insts issued each cycle
[...]
system.cpu3.iq.FU_type_0::MemRead                   0                       # Type of FU issued
system.cpu3.iq.FU_type_0::MemWrite                  0                       # Type of FU issued
system.cpu3.iq.FU_type_0::IprAccess                 0                       # Type of FU issued
system.cpu3.iq.FU_type_0::InstPrefetch              0                       # Type of FU issued
system.cpu3.iq.FU_type_0::total                     0                       # Type of FU issued
system.cpu3.iq.rate                               nan                       # Inst issue rate
system.cpu3.iq.fu_busy_cnt                          0                       # FU busy when requested
system.cpu3.iq.fu_busy_rate                       nan                       # FU busy rate (busy events/executed inst)
system.cpu3.iq.int_inst_queue_reads                 0                       # Number of integer instruction queue reads
system.cpu3.iq.int_inst_queue_writes                0                       # Number of integer instruction queue writes
system.cpu3.iq.int_inst_queue_wakeup_accesses            0                       # Number of integer instruction queue wakeup accesses
system.cpu3.iq.fp_inst_queue_reads                  0                       # Number of floating instruction queue reads
system.cpu3.iq.fp_inst_queue_writes                 0                       # Number of floating instruction queue writes
system.cpu3.iq.fp_inst_queue_wakeup_accesses            0                       # Number of floating instruction queue wakeup accesses
system.cpu3.iq.int_alu_accesses                     0                       # Number of integer alu accesses
system.cpu3.iq.fp_alu_accesses                      0                       # Number of floating point alu accesses
system.cpu3.iew.lsq.thread0.forwLoads               0                       # Number of loads that had data forwarded from stores
system.cpu3.iew.lsq.thread0.invAddrLoads            0                       # Number of loads ignored due to an invalid address
system.cpu3.iew.lsq.thread0.squashedLoads            0                       # Number of loads squashed
system.cpu3.iew.lsq.thread0.ignoredResponses            0                       # Number of memory responses ignored because the instruction is squashed
system.cpu3.iew.lsq.thread0.memOrderViolation            0                       # Number of memory ordering violations
system.cpu3.iew.lsq.thread0.squashedStores            0                       # Number of stores squashed
system.cpu3.iew.lsq.thread0.invAddrSwpfs            0                       # Number of software prefetches ignored due to an invalid address
system.cpu3.iew.lsq.thread0.blockedLoads            0                       # Number of blocked loads due to partial load-store forwarding
system.cpu3.iew.lsq.thread0.rescheduledLoads            0                       # Number of loads that were rescheduled
system.cpu3.iew.lsq.thread0.cacheBlocked            0                       # Number of times an access to memory failed due to the cache being blocked
system.cpu3.iew.iewIdleCycles                       0                       # Number of cycles IEW is idle
system.cpu3.iew.iewSquashCycles                     0                       # Number of cycles IEW is squashing
system.cpu3.iew.iewBlockCycles                      0                       # Number of cycles IEW is blocking
system.cpu3.iew.iewUnblockCycles                    0                       # Number of cycles IEW is unblocking
system.cpu3.iew.iewDispatchedInsts                  0                       # Number of instructions dispatched to IQ
system.cpu3.iew.iewDispSquashedInsts                0                       # Number of squashed instructions skipped by dispatch
system.cpu3.iew.iewDispLoadInsts                    0                       # Number of dispatched load instructions
system.cpu3.iew.iewDispStoreInsts                   0                       # Number of dispatched store instructions
system.cpu3.iew.iewDispNonSpecInsts                 0                       # Number of dispatched non-speculative instructions
system.cpu3.iew.iewIQFullEvents                     0                       # Number of times the IQ has become full, causing a stall
system.cpu3.iew.iewLSQFullEvents                    0                       # Number of times the LSQ has become full, causing a stall
system.cpu3.iew.memOrderViolationEvents             0                       # Number of memory order violations
system.cpu3.iew.predictedTakenIncorrect             0                       # Number of branches that were predicted taken incorrectly
system.cpu3.iew.predictedNotTakenIncorrect            0                       # Number of branches that were predicted not taken incorrectly
system.cpu3.iew.branchMispredicts                   0                       # Number of branch mispredicts detected at execute
system.cpu3.iew.iewExecutedInsts                    0                       # Number of executed instructions
system.cpu3.iew.iewExecLoadInsts                    0                       # Number of load instructions executed
system.cpu3.iew.iewExecSquashedInsts                0                       # Number of squashed instructions skipped in execute
system.cpu3.iew.exec_swp                            0                       # number of swp insts executed
system.cpu3.iew.exec_nop                            0                       # number of nop insts executed
system.cpu3.iew.exec_refs                           0                       # number of memory reference insts executed
system.cpu3.iew.exec_branches                       0                       # Number of branches executed
system.cpu3.iew.exec_stores                         0                       # Number of stores executed
system.cpu3.iew.exec_rate                         nan                       # Inst execution rate
system.cpu3.iew.wb_sent                             0                       # cumulative count of insts sent to commit
system.cpu3.iew.wb_count                            0                       # cumulative count of insts written-back
system.cpu3.iew.wb_producers                        0                       # num instructions producing a value
system.cpu3.iew.wb_consumers                        0                       # num instructions consuming a value
system.cpu3.iew.wb_penalized                        0                       # number of instrctions required to write to 'other' IQ
system.cpu3.iew.wb_rate                           nan                       # insts written-back per cycle
system.cpu3.iew.wb_fanout                         nan                       # average fanout of values written-back
system.cpu3.iew.wb_penalized_rate                 nan                       # fraction of instructions written-back that wrote to 'other' IQ
system.cpu3.commit.committed_per_cycle::samples            0                       # Number of insts commited each cycle
system.cpu3.commit.committed_per_cycle::mean          nan                       # Number of insts commited each cycle
system.cpu3.commit.committed_per_cycle::stdev          nan                       # Number of insts commited each cycle
system.cpu3.commit.committed_per_cycle::underflows            0                       # Number of insts commited each cycle
system.cpu3.commit.committed_per_cycle::0            0                       # Number of insts commited each cycle
system.cpu3.commit.committed_per_cycle::1            0                       # Number of insts commited each cycle
system.cpu3.commit.committed_per_cycle::2            0                       # Number of insts commited each cycle
system.cpu3.commit.committed_per_cycle::3            0                       # Number of insts commited each cycle
system.cpu3.commit.committed_per_cycle::4            0                       # Number of insts commited each cycle
system.cpu3.commit.committed_per_cycle::5            0                       # Number of insts commited each cycle
system.cpu3.commit.committed_per_cycle::6            0                       # Number of insts commited each cycle
system.cpu3.commit.committed_per_cycle::7            0                       # Number of insts commited each cycle
system.cpu3.commit.committed_per_cycle::8            0                       # Number of insts commited each cycle
system.cpu3.commit.committed_per_cycle::overflows            0                       # Number of insts commited each cycle
system.cpu3.commit.committed_per_cycle::min_value            0                       # Number of insts commited each cycle
system.cpu3.commit.committed_per_cycle::max_value            0                       # Number of insts commited each cycle
system.cpu3.commit.committed_per_cycle::total            0                       # Number of insts commited each cycle
system.cpu3.commit.committedInsts                   0                       # Number of instructions committed
system.cpu3.commit.committedOps                     0                       # Number of ops (including micro ops) committed
system.cpu3.commit.swp_count                        0                       # Number of s/w prefetches committed
system.cpu3.commit.refs                             0                       # Number of memory references committed
system.cpu3.commit.loads                            0                       # Number of loads committed
system.cpu3.commit.membars                          0                       # Number of memory barriers committed
system.cpu3.commit.branches                         0                       # Number of branches committed
system.cpu3.commit.fp_insts                         0                       # Number of committed floating point instructions.
system.cpu3.commit.int_insts                        0                       # Number of committed integer instructions.
system.cpu3.commit.function_calls                   0                       # Number of function calls committed.
system.cpu3.commit.op_class_0::No_OpClass            0                       # Class of committed instruction
system.cpu3.commit.op_class_0::IntAlu               0                       # Class of committed instruction
system.cpu3.commit.op_class_0::IntMult              0                       # Class of committed instruction
system.cpu3.commit.op_class_0::IntDiv               0                       # Class of committed instruction
system.cpu3.commit.op_class_0::FloatAdd             0                       # Class of committed instruction
system.cpu3.commit.op_class_0::FloatCmp             0                       # Class of committed instruction
system.cpu3.commit.op_class_0::FloatCvt             0                       # Class of committed instruction
system.cpu3.commit.op_class_0::FloatMult            0                       # Class of committed instruction
system.cpu3.commit.op_class_0::FloatDiv             0                       # Class of committed instruction
system.cpu3.commit.op_class_0::FloatSqrt            0                       # Class of committed instruction
system.cpu3.commit.op_class_0::SimdAdd              0                       # Class of committed instruction
system.cpu3.commit.op_class_0::SimdAddAcc            0                       # Class of committed instruction
system.cpu3.commit.op_class_0::SimdAlu              0                       # Class of committed instruction
system.cpu3.commit.op_class_0::SimdCmp              0                       # Class of committed instruction
system.cpu3.commit.op_class_0::SimdCvt              0                       # Class of committed instruction
system.cpu3.commit.op_class_0::SimdMisc             0                       # Class of committed instruction
system.cpu3.commit.op_class_0::SimdMult             0                       # Class of committed instruction
system.cpu3.commit.op_class_0::SimdMultAcc            0                       # Class of committed instruction
system.cpu3.commit.op_class_0::SimdShift            0                       # Class of committed instruction
system.cpu3.commit.op_class_0::SimdShiftAcc            0                       # Class of committed instruction
system.cpu3.commit.op_class_0::SimdSqrt             0                       # Class of committed instruction
system.cpu3.commit.op_class_0::SimdFloatAdd            0                       # Class of committed instruction
system.cpu3.commit.op_class_0::SimdFloatAlu            0                       # Class of committed instruction
system.cpu3.commit.op_class_0::SimdFloatCmp            0                       # Class of committed instruction
system.cpu3.commit.op_class_0::SimdFloatCvt            0                       # Class of committed instruction
system.cpu3.commit.op_class_0::SimdFloatDiv            0                       # Class of committed instruction
system.cpu3.commit.op_class_0::SimdFloatMisc            0                       # Class of committed instruction
system.cpu3.commit.op_class_0::SimdFloatMult            0                       # Class of committed instruction
system.cpu3.commit.op_class_0::SimdFloatMultAcc            0                       # Class of committed instruction
system.cpu3.commit.op_class_0::SimdFloatSqrt            0                       # Class of committed instruction
system.cpu3.commit.op_class_0::MemRead              0                       # Class of committed instruction
system.cpu3.commit.op_class_0::MemWrite             0                       # Class of committed instruction
system.cpu3.commit.op_class_0::IprAccess            0                       # Class of committed instruction
system.cpu3.commit.op_class_0::InstPrefetch            0                       # Class of committed instruction
system.cpu3.commit.op_class_0::total                0                       # Class of committed instruction
system.cpu3.commit.bw_lim_events                    0                       # number cycles where commit BW limit reached
system.cpu3.commit.bw_limited                       0                       # number of insts not committed due to BW limits
system.cpu3.rob.rob_reads                           0                       # The number of ROB reads
system.cpu3.rob.rob_writes                          0                       # The number of ROB writes
system.cpu3.committedInsts                          0                       # Number of Instructions Simulated
system.cpu3.committedOps                            0                       # Number of Ops (including micro ops) Simulated
system.cpu3.cpi                                   nan                       # CPI: Cycles Per Instruction
system.cpu3.cpi_total                             nan                       # CPI: Total CPI of All Threads
system.cpu3.ipc                                   nan                       # IPC: Instructions Per Cycle
system.cpu3.ipc_total                             nan                       # IPC: Total IPC of All Threads
system.cpu3.icache.tags.replacements                0                       # number of replacements
system.cpu3.icache.tags.tagsinuse                   0                       # Cycle average of tags in use
system.cpu3.icache.tags.total_refs                  0                       # Total number of references to valid blocks.
system.cpu3.icache.tags.sampled_refs                0                       # Sample count of references to valid blocks.
system.cpu3.icache.tags.avg_refs                  nan                       # Average number of references to valid blocks.
system.cpu3.icache.tags.warmup_cycle                0                       # Cycle when the warmup percentage was hit.
system.cpu3.icache.tags.tag_accesses                0                       # Number of tag accesses
system.cpu3.icache.tags.data_accesses               0                       # Number of data accesses
system.cpu3.icache.blocked_cycles::no_mshrs            0                       # number of cycles access was blocked
system.cpu3.icache.blocked_cycles::no_targets            0                       # number of cycles access was blocked
system.cpu3.icache.blocked::no_mshrs                0                       # number of cycles access was blocked
system.cpu3.icache.blocked::no_targets              0                       # number of cycles access was blocked
system.cpu3.icache.avg_blocked_cycles::no_mshrs          nan                       # average number of cycles each access was blocked
system.cpu3.icache.avg_blocked_cycles::no_targets          nan                       # average number of cycles each access was blocked
system.cpu3.icache.fast_writes                      0                       # number of fast writes performed
system.cpu3.icache.cache_copies                     0                       # number of cache copies performed
system.cpu3.icache.no_allocate_misses               0                       # Number of misses that were no-allocate
system.cpu3.dcache.tags.replacements                0                       # number of replacements
system.cpu3.dcache.tags.tagsinuse                   0                       # Cycle average of tags in use
system.cpu3.dcache.tags.total_refs                  0                       # Total number of references to valid blocks.
system.cpu3.dcache.tags.sampled_refs                0                       # Sample count of references to valid blocks.
system.cpu3.dcache.tags.avg_refs                  nan                       # Average number of references to valid blocks.
system.cpu3.dcache.tags.warmup_cycle                0                       # Cycle when the warmup percentage was hit.
system.cpu3.dcache.tags.tag_accesses                0                       # Number of tag accesses
system.cpu3.dcache.tags.data_accesses               0                       # Number of data accesses
system.cpu3.dcache.blocked_cycles::no_mshrs            0                       # number of cycles access was blocked
system.cpu3.dcache.blocked_cycles::no_targets            0                       # number of cycles access was blocked
system.cpu3.dcache.blocked::no_mshrs                0                       # number of cycles access was blocked
system.cpu3.dcache.blocked::no_targets              0                       # number of cycles access was blocked
system.cpu3.dcache.avg_blocked_cycles::no_mshrs          nan                       # average number of cycles each access was blocked
system.cpu3.dcache.avg_blocked_cycles::no_targets          nan                       # average number of cycles each access was blocked
system.cpu3.dcache.fast_writes                      0                       # number of fast writes performed
system.cpu3.dcache.cache_copies                     0                       # number of cache copies performed
system.cpu3.dcache.no_allocate_misses               0                       # Number of misses that were no-allocate
system.cpu0.kern.inst.arm                           0                       # number of arm instructions executed
system.cpu0.kern.inst.quiesce                       0                       # number of quiesce instructions executed
system.cpu1.kern.inst.arm                           0                       # number of arm instructions executed
system.cpu1.kern.inst.quiesce                       0                       # number of quiesce instructions executed
system.cpu2.kern.inst.arm                           0                       # number of arm instructions executed
system.cpu2.kern.inst.quiesce                       0                       # number of quiesce instructions executed
system.cpu3.kern.inst.arm                           0                       # number of arm instructions executed
system.cpu3.kern.inst.quiesce                       0                       # number of quiesce instructions executed

---------- End Simulation Statistics   ----------
